REMARK SMILES CN1CCN(c2cnc(Cl)cc2-c2ncc(-c3ccc(Cl)cc3Cl)[nH]2)CC1
REMARK SMILES IDX 12 1 6 2 7 3 8 4 9 5 11 6 10 7 13 8 16 9 15 10 25 11 14 12
REMARK SMILES IDX 17 14 19 15 18 16 20 17 22 18 23 19 21 20 24 21 5 22 4 23
REMARK SMILES IDX 26 24 3 25 27 26 2 27 1 28
REMARK H PARENT 25 13
ROOT
ATOM      1  C   UNL     1      -0.464   1.244  -2.060  1.00  0.00     0.045 A 
ATOM      2  C   UNL     1      -1.054  -0.030  -1.853  1.00  0.00     0.067 A 
ATOM      3  C   UNL     1      -1.894  -0.470  -2.882  1.00  0.00     0.139 A 
ATOM      4  N   UNL     1      -2.229   0.233  -3.989  1.00  0.00    -0.242 NA
ATOM      5  C   UNL     1      -1.687   1.455  -4.100  1.00  0.00     0.129 A 
ATOM      6  C   UNL     1      -0.809   1.998  -3.190  1.00  0.00     0.055 A 
ATOM      7  Cl  UNL     1      -2.146   2.312  -5.509  1.00  0.00    -0.062 Cl
ENDROOT
BRANCH   1   8
ATOM      8  C   UNL     1       0.564   1.807  -1.173  1.00  0.00     0.140 A 
ATOM      9  C   UNL     1       2.201   1.851   0.360  1.00  0.00     0.067 A 
ATOM     10  C   UNL     1       1.952   3.102  -0.167  1.00  0.00     0.140 A 
ATOM     11  N   UNL     1       1.314   1.046  -0.308  1.00  0.00    -0.338 N 
ATOM     12  N   UNL     1       0.953   3.065  -1.108  1.00  0.00    -0.236 NA
ATOM     13  H   UNL     1       1.182   0.050  -0.188  1.00  0.00     0.168 HD
BRANCH   9  14
ATOM     14  C   UNL     1       3.145   1.390   1.379  1.00  0.00     0.018 A 
ATOM     15  C   UNL     1       4.222   1.813   3.531  1.00  0.00     0.021 A 
ATOM     16  C   UNL     1       3.324   2.186   2.526  1.00  0.00     0.013 A 
ATOM     17  C   UNL     1       4.960   0.639   3.397  1.00  0.00     0.042 A 
ATOM     18  C   UNL     1       4.801  -0.170   2.274  1.00  0.00     0.041 A 
ATOM     19  C   UNL     1       3.898   0.200   1.270  1.00  0.00     0.051 A 
ATOM     20  Cl  UNL     1       6.090   0.195   4.616  1.00  0.00    -0.084 Cl
ATOM     21  Cl  UNL     1       3.788  -0.851  -0.103  1.00  0.00    -0.084 Cl
ENDBRANCH   9  14
ENDBRANCH   1   8
BRANCH   2  22
ATOM     22  N   UNL     1      -0.821  -0.764  -0.673  1.00  0.00    -0.367 N 
ATOM     23  C   UNL     1      -1.514  -0.197   0.523  1.00  0.00     0.132 C 
ATOM     24  C   UNL     1      -0.867  -2.248  -0.705  1.00  0.00     0.132 C 
ATOM     25  C   UNL     1      -2.922  -0.797   0.723  1.00  0.00     0.105 C 
ATOM     26  C   UNL     1      -2.260  -2.843  -0.376  1.00  0.00     0.105 C 
ATOM     27  N   UNL     1      -2.872  -2.269   0.839  1.00  0.00    -0.303 NA
ATOM     28  C   UNL     1      -4.209  -2.815   1.059  1.00  0.00     0.105 C 
ENDBRANCH   2  22
TORSDOF 3
