REMARK SMILES COc1cc(-c2cncc3c2CCOc2cc(N4CCN(C)CC4)ccc2-3)cc(OC)c1OC
REMARK SMILES IDX 11 1 10 2 9 3 8 4 7 5 6 6 27 7 17 8 25 9 16 10 26 11 15 12
REMARK SMILES IDX 18 13 21 14 20 15 23 16 19 17 24 18 22 19 14 20 13 21 12 23
REMARK SMILES IDX 5 25 4 26 28 27 3 28 29 29 32 30 2 31 1 32 30 33 31 34 33 35
REMARK SMILES IDX 34 36
REMARK H PARENT
REMARK Flexibility Score:   24.900
ROOT
ATOM      1  C   UNL     1       1.469   0.863   0.038  1.00  0.00    -0.026 A 
ATOM      2  C   UNL     1       0.352   1.690  -0.210  1.00  0.00     0.008 A 
ATOM      3  C   UNL     1       0.637   3.044  -0.443  1.00  0.00     0.120 A 
ATOM      4  N   UNL     1       1.871   3.596  -0.502  1.00  0.00    -0.263 NA
ATOM      5  C   UNL     1       2.906   2.758  -0.309  1.00  0.00     0.120 A 
ATOM      6  C   UNL     1       2.780   1.397  -0.030  1.00  0.00     0.004 A 
ENDROOT
BRANCH   2   7
ATOM      7  C   UNL     1      -1.050   1.196  -0.256  1.00  0.00     0.026 A 
ATOM      8  C   UNL     1      -3.844   0.434  -0.501  1.00  0.00     0.040 A 
ATOM      9  C   UNL     1      -3.269   1.391  -1.334  1.00  0.00     0.027 A 
ATOM     10  C   UNL     1      -2.975  -0.152   0.426  1.00  0.00     0.073 A 
ATOM     11  C   UNL     1      -1.919   1.757  -1.220  1.00  0.00     0.015 A 
ATOM     12  C   UNL     1      -1.608   0.195   0.553  1.00  0.00     0.129 A 
BRANCH   8  13
ATOM     13  N   UNL     1      -5.175   0.074  -0.608  1.00  0.00    -0.369 N 
ATOM     14  N   UNL     1      -8.111  -0.557  -0.540  1.00  0.00    -0.303 NA
ATOM     15  C   UNL     1      -7.560   0.813  -0.500  1.00  0.00     0.105 C 
ATOM     16  C   UNL     1      -7.035  -1.567  -0.634  1.00  0.00     0.105 C 
ATOM     17  C   UNL     1      -6.175   1.005  -1.165  1.00  0.00     0.132 C 
ATOM     18  C   UNL     1      -5.706  -1.141   0.033  1.00  0.00     0.132 C 
ATOM     19  C   UNL     1      -9.069  -0.725  -1.629  1.00  0.00     0.105 C 
ENDBRANCH   8  13
BRANCH  12  20
ATOM     20  O   UNL     1      -1.010  -0.575   1.511  1.00  0.00    -0.493 OA
BRANCH  20  21
ATOM     21  C   UNL     1       0.390  -0.525   1.737  1.00  0.00     0.234 CG0
ATOM     22  G   UNL     1       1.226  -0.566   0.465  1.00  0.00     0.000 G0
ENDBRANCH  20  21
ENDBRANCH  12  20
ENDBRANCH   2   7
BRANCH   1  23
ATOM     23  C   UNL     1       1.226  -0.566   0.465  1.00  0.00     0.078 CG0
ATOM     24  G   UNL     1       0.390  -0.525   1.737  1.00  0.00     0.000 G0
ENDBRANCH   1  23
BRANCH   6  25
ATOM     25  C   UNL     1       3.992   0.602   0.197  1.00  0.00    -0.009 A 
ATOM     26  C   UNL     1       4.615   0.601   1.458  1.00  0.00     0.059 A 
ATOM     27  C   UNL     1       4.545  -0.162  -0.845  1.00  0.00     0.059 A 
ATOM     28  C   UNL     1       5.764  -0.158   1.687  1.00  0.00     0.165 A 
ATOM     29  C   UNL     1       5.695  -0.926  -0.639  1.00  0.00     0.165 A 
ATOM     30  C   UNL     1       6.283  -0.934   0.637  1.00  0.00     0.203 A 
BRANCH  28  31
ATOM     31  O   UNL     1       6.431  -0.227   2.883  1.00  0.00    -0.493 OA
ATOM     32  C   UNL     1       6.041   0.682   3.903  1.00  0.00     0.278 C 
ENDBRANCH  28  31
BRANCH  29  33
ATOM     33  O   UNL     1       6.300  -1.702  -1.594  1.00  0.00    -0.493 OA
ATOM     34  C   UNL     1       5.870  -1.536  -2.938  1.00  0.00     0.278 C 
ENDBRANCH  29  33
BRANCH  30  35
ATOM     35  O   UNL     1       7.441  -1.653   0.841  1.00  0.00    -0.490 OA
ATOM     36  C   UNL     1       7.121  -2.973   1.277  1.00  0.00     0.278 C 
ENDBRANCH  30  35
ENDBRANCH   6  25
TORSDOF 5
