REMARK SMILES Clc1cc2cc(c1)-c1cnn3c1N/C(=N/CCOCCO2)C=C3
REMARK SMILES IDX 15 1 14 2 8 3 12 4 9 5 13 6 11 7 10 8 23 9 22 10 6 12 2 13
REMARK SMILES IDX 7 14 3 15 4 16 5 17 1 18 21 19 20 20 16 22 17 23 18 24 19 25
REMARK H PARENT 13 11
REMARK Flexibility Score:   43.900
ROOT
ATOM      1  N   UNL     1       2.098   0.586   1.109  1.00  0.00    -0.266 NA
ENDROOT
BRANCH   1   2
ATOM      2  C   UNL     1       1.444   1.600   0.676  1.00  0.00     0.128 C 
ATOM      3  C   UNL     1      -2.000   1.636  -0.412  1.00  0.00     0.045 A 
ATOM      4  C   UNL     1      -0.792   2.073   0.076  1.00  0.00     0.142 A 
ATOM      5  C   UNL     1      -2.376   2.660  -1.304  1.00  0.00     0.146 A 
ATOM      6  N   UNL     1       0.096   1.541   0.955  1.00  0.00    -0.325 N 
ATOM      7  N   UNL     1      -0.380   3.131  -0.720  1.00  0.00    -0.224 N 
ATOM      8  N   UNL     1      -1.435   3.610  -1.434  1.00  0.00    -0.174 NA
ATOM      9  C   UNL     1       0.979   3.482  -0.784  1.00  0.00     0.119 C 
ATOM     10  C   UNL     1       1.931   2.757  -0.154  1.00  0.00     0.067 C 
ATOM     11  H   UNL     1      -0.142   0.697   1.469  1.00  0.00     0.170 HD
BRANCH   3  12
ATOM     12  C   UNL     1      -2.458   0.276  -0.196  1.00  0.00    -0.008 A 
ATOM     13  C   UNL     1      -4.060  -1.395   0.444  1.00  0.00     0.045 A 
ATOM     14  C   UNL     1      -3.753  -0.052   0.184  1.00  0.00     0.029 A 
ATOM     15  C   UNL     1      -3.087  -2.402   0.354  1.00  0.00     0.067 A 
ATOM     16  C   UNL     1      -1.789  -2.069  -0.011  1.00  0.00     0.121 A 
ATOM     17  C   UNL     1      -1.507  -0.753  -0.346  1.00  0.00     0.055 A 
ATOM     18  Cl  UNL     1      -5.664  -1.814   0.913  1.00  0.00    -0.084 Cl
BRANCH  16  19
ATOM     19  O   UNL     1      -0.837  -3.052  -0.071  1.00  0.00    -0.491 OA
BRANCH  19  20
ATOM     20  C   UNL     1       0.385  -2.734   0.632  1.00  0.00     0.258 CG0
ATOM     21  G   UNL     1       1.541  -2.396  -0.320  1.00  0.00     0.000 G0
ENDBRANCH  19  20
ENDBRANCH  16  19
ENDBRANCH   3  12
ENDBRANCH   1   2
BRANCH   1  22
ATOM     22  C   UNL     1       3.472   0.256   0.780  1.00  0.00     0.173 C 
BRANCH  22  23
ATOM     23  C   UNL     1       3.481  -0.984  -0.140  1.00  0.00     0.184 C 
BRANCH  23  24
ATOM     24  O   UNL     1       2.719  -2.063   0.426  1.00  0.00    -0.376 OA
BRANCH  24  25
ATOM     25  C   UNL     1       1.541  -2.396  -0.320  1.00  0.00     0.201 CG0
ATOM     26  G   UNL     1       0.385  -2.734   0.632  1.00  0.00     0.000 G0
ENDBRANCH  24  25
ENDBRANCH  23  24
ENDBRANCH  22  23
ENDBRANCH   1  22
TORSDOF 0
