REMARK SMILES Cc1ccc(Oc2ccnc(Nc3ccc(S(N)(=O)=O)cc3)c2)c(C)n1
REMARK SMILES IDX 12 1 13 3 16 4 15 5 21 6 14 7 22 8 17 9 19 10 20 11 18 12
REMARK SMILES IDX 11 15 10 16 23 17 9 18 7 19 8 20 6 21 5 22 4 23 24 24 3 25
REMARK SMILES IDX 26 26 2 27 25 28 1 29
REMARK H PARENT 12 2 18 13 18 14
ROOT
ATOM      1  N   UNL     1       1.968   0.655  -1.013  1.00  0.00    -0.340 N 
ATOM      2  H   UNL     1       1.816   1.623  -1.271  1.00  0.00     0.168 HD
ENDROOT
BRANCH   1   3
ATOM      3  C   UNL     1       3.310   0.418  -0.640  1.00  0.00     0.040 A 
ATOM      4  C   UNL     1       6.032  -0.034  -0.091  1.00  0.00     0.082 A 
ATOM      5  C   UNL     1       5.646   1.130  -0.755  1.00  0.00     0.024 A 
ATOM      6  C   UNL     1       5.081  -0.976   0.296  1.00  0.00     0.024 A 
ATOM      7  C   UNL     1       4.293   1.342  -1.038  1.00  0.00     0.027 A 
ATOM      8  C   UNL     1       3.731  -0.753   0.003  1.00  0.00     0.027 A 
BRANCH   4   9
ATOM      9  S   UNL     1       7.744  -0.309   0.268  1.00  0.00     0.238 S 
ATOM     10  O   UNL     1       8.421   0.965   0.287  1.00  0.00    -0.207 OA
ATOM     11  O   UNL     1       7.842  -1.259   1.353  1.00  0.00    -0.207 OA
BRANCH   9  12
ATOM     12  N   UNL     1       8.245  -1.140  -1.110  1.00  0.00    -0.225 NA
ATOM     13  H   UNL     1       8.527  -2.083  -0.838  1.00  0.00     0.137 HD
ATOM     14  H   UNL     1       7.541  -1.151  -1.847  1.00  0.00     0.137 HD
ENDBRANCH   9  12
ENDBRANCH   4   9
ENDBRANCH   1   3
BRANCH   1  15
ATOM     15  C   UNL     1       0.778   0.125  -0.458  1.00  0.00     0.134 A 
ATOM     16  N   UNL     1       0.792  -0.610   0.673  1.00  0.00    -0.239 NA
ATOM     17  C   UNL     1      -0.412   0.367  -1.141  1.00  0.00     0.094 A 
ATOM     18  C   UNL     1      -0.377  -1.105   1.137  1.00  0.00     0.117 A 
ATOM     19  C   UNL     1      -1.608  -0.134  -0.632  1.00  0.00     0.132 A 
ATOM     20  C   UNL     1      -1.596  -0.903   0.524  1.00  0.00     0.067 A 
BRANCH  19  21
ATOM     21  O   UNL     1      -2.743   0.120  -1.368  1.00  0.00    -0.455 OA
BRANCH  21  22
ATOM     22  C   UNL     1      -3.906   0.353  -0.676  1.00  0.00     0.148 A 
ATOM     23  C   UNL     1      -4.007   1.384   0.256  1.00  0.00     0.051 A 
ATOM     24  C   UNL     1      -5.039  -0.410  -0.958  1.00  0.00     0.080 A 
ATOM     25  C   UNL     1      -5.218   1.597   0.907  1.00  0.00     0.027 A 
ATOM     26  N   UNL     1      -6.224  -0.213  -0.324  1.00  0.00    -0.255 NA
ATOM     27  C   UNL     1      -6.300   0.780   0.595  1.00  0.00     0.038 A 
ATOM     28  C   UNL     1      -4.995  -1.507  -1.979  1.00  0.00     0.071 C 
ATOM     29  C   UNL     1      -7.617   0.979   1.282  1.00  0.00     0.067 C 
ENDBRANCH  21  22
ENDBRANCH  19  21
ENDBRANCH   1  15
TORSDOF 6
