REMARK SMILES Cc1cccc2c(Nc3ccnc(Nc4ccc(N5CCOCC5)cc4)n3)cnnc12
REMARK SMILES IDX 9 1 27 2 13 3 12 4 11 5 10 6 8 7 7 9 2 10 3 11 31 12 4 13
REMARK SMILES IDX 6 14 30 15 5 16 29 17 28 18 1 19 14 20 15 22 16 23 26 24
REMARK SMILES IDX 17 25 25 26 18 27 19 28 20 29 24 30 21 31 23 32 22 33
REMARK H PARENT 8 8 14 21
ROOT
ATOM      1  C   UNL     1      -2.427   0.541   0.175  1.00  0.00     0.136 A 
ATOM      2  N   UNL     1      -1.356  -0.164  -0.222  1.00  0.00    -0.195 NA
ATOM      3  C   UNL     1      -0.136   0.330   0.057  1.00  0.00     0.229 A 
ATOM      4  N   UNL     1       0.055   1.487   0.704  1.00  0.00    -0.221 NA
ATOM      5  C   UNL     1      -1.036   2.176   1.073  1.00  0.00     0.119 A 
ATOM      6  C   UNL     1      -2.314   1.746   0.832  1.00  0.00     0.067 A 
ENDROOT
BRANCH   1   7
ATOM      7  N   UNL     1      -3.685   0.009  -0.158  1.00  0.00    -0.338 N 
ATOM      8  H   UNL     1      -3.503  -0.880  -0.625  1.00  0.00     0.168 HD
BRANCH   7   9
ATOM      9  C   UNL     1      -4.814  -0.111   0.697  1.00  0.00     0.070 A 
ATOM     10  C   UNL     1      -8.496  -0.500   0.516  1.00  0.00    -0.023 A 
ATOM     11  C   UNL     1      -8.725  -0.412  -0.867  1.00  0.00     0.006 A 
ATOM     12  C   UNL     1      -7.197  -0.404   1.038  1.00  0.00     0.098 A 
ATOM     13  C   UNL     1      -7.663  -0.218  -1.739  1.00  0.00     0.001 A 
ATOM     14  C   UNL     1      -6.115  -0.214   0.154  1.00  0.00     0.028 A 
ATOM     15  N   UNL     1      -6.986  -0.495   2.364  1.00  0.00    -0.150 NA
ATOM     16  C   UNL     1      -6.370  -0.118  -1.234  1.00  0.00     0.012 A 
ATOM     17  N   UNL     1      -5.731  -0.423   2.895  1.00  0.00    -0.156 NA
ATOM     18  C   UNL     1      -4.684  -0.248   2.073  1.00  0.00     0.162 A 
ATOM     19  C   UNL     1      -9.662  -0.716   1.445  1.00  0.00     0.047 C 
ENDBRANCH   7   9
ENDBRANCH   1   7
BRANCH   3  20
ATOM     20  N   UNL     1       0.928  -0.465  -0.360  1.00  0.00    -0.324 N 
ATOM     21  H   UNL     1       0.567  -1.283  -0.825  1.00  0.00     0.170 HD
BRANCH  20  22
ATOM     22  C   UNL     1       2.317  -0.310  -0.349  1.00  0.00     0.041 A 
ATOM     23  C   UNL     1       2.975   0.838   0.088  1.00  0.00     0.028 A 
ATOM     24  C   UNL     1       3.118  -1.381  -0.759  1.00  0.00     0.028 A 
ATOM     25  C   UNL     1       4.378   0.919   0.093  1.00  0.00     0.028 A 
ATOM     26  C   UNL     1       4.519  -1.298  -0.745  1.00  0.00     0.028 A 
ATOM     27  C   UNL     1       5.190  -0.145  -0.318  1.00  0.00     0.037 A 
BRANCH  27  28
ATOM     28  N   UNL     1       6.570  -0.063  -0.311  1.00  0.00    -0.367 N 
ATOM     29  C   UNL     1       7.278   1.225  -0.262  1.00  0.00     0.145 C 
ATOM     30  C   UNL     1       7.419  -1.263  -0.243  1.00  0.00     0.145 C 
ATOM     31  C   UNL     1       8.692   1.067  -0.848  1.00  0.00     0.181 C 
ATOM     32  C   UNL     1       8.743  -0.934   0.468  1.00  0.00     0.181 C 
ATOM     33  O   UNL     1       9.506   0.101  -0.169  1.00  0.00    -0.378 OA
ENDBRANCH  27  28
ENDBRANCH  20  22
ENDBRANCH   3  20
TORSDOF 5
