REMARK SMILES c1cc(-c2cnn3cc(-c4ccc(N5CCNCC5)cc4)cnc23)c2cccnc2c1
REMARK SMILES IDX 10 1 11 2 12 3 13 4 20 5 21 6 9 7 4 8 24 9 5 10 23 11 7 12
REMARK SMILES IDX 6 13 22 14 8 15 3 16 25 17 30 18 26 19 2 20 31 21 29 22
REMARK SMILES IDX 27 23 1 24 28 25 14 26 15 27 19 28 16 29 18 30 17 31
REMARK H PARENT 17 32
ROOT
ATOM      1  C   UNL     1       1.411  -0.231   0.306  1.00  0.00    -0.015 A 
ATOM      2  C   UNL     1       2.304  -1.179   0.809  1.00  0.00     0.011 A 
ATOM      3  C   UNL     1       3.690  -0.993   0.688  1.00  0.00     0.026 A 
ATOM      4  C   UNL     1       4.240   0.135   0.062  1.00  0.00     0.037 A 
ATOM      5  C   UNL     1       3.324   1.075  -0.434  1.00  0.00     0.026 A 
ATOM      6  C   UNL     1       1.937   0.901  -0.319  1.00  0.00     0.011 A 
ENDROOT
BRANCH   1   7
ATOM      7  C   UNL     1      -0.039  -0.419   0.416  1.00  0.00     0.018 A 
ATOM      8  C   UNL     1      -4.129  -0.895   0.860  1.00  0.00     0.047 A 
ATOM      9  C   UNL     1      -2.821  -0.693   0.464  1.00  0.00     0.162 A 
ATOM     10  C   UNL     1      -4.044  -1.231   2.225  1.00  0.00     0.146 A 
ATOM     11  N   UNL     1      -2.259  -0.363  -0.741  1.00  0.00    -0.236 NA
ATOM     12  N   UNL     1      -2.040  -0.891   1.610  1.00  0.00    -0.221 N 
ATOM     13  N   UNL     1      -2.794  -1.218   2.689  1.00  0.00    -0.174 NA
ATOM     14  C   UNL     1      -0.965  -0.238  -0.750  1.00  0.00     0.124 A 
ATOM     15  C   UNL     1      -0.658  -0.746   1.563  1.00  0.00     0.125 A 
BRANCH   8  16
ATOM     16  C   UNL     1      -5.288  -0.798  -0.011  1.00  0.00    -0.004 A 
ATOM     17  C   UNL     1      -6.339   0.135   0.231  1.00  0.00     0.008 A 
ATOM     18  C   UNL     1      -7.466   0.138  -0.624  1.00  0.00     0.071 A 
ATOM     19  C   UNL     1      -6.342   1.093   1.271  1.00  0.00     0.012 A 
ATOM     20  C   UNL     1      -5.370  -1.680  -1.098  1.00  0.00     0.010 A 
ATOM     21  C   UNL     1      -7.512  -0.758  -1.682  1.00  0.00     0.029 A 
ATOM     22  N   UNL     1      -8.507   0.975  -0.465  1.00  0.00    -0.256 NA
ATOM     23  C   UNL     1      -7.413   1.963   1.435  1.00  0.00     0.021 A 
ATOM     24  C   UNL     1      -6.479  -1.660  -1.933  1.00  0.00     0.003 A 
ATOM     25  C   UNL     1      -8.465   1.863   0.550  1.00  0.00     0.112 A 
ENDBRANCH   8  16
ENDBRANCH   1   7
BRANCH   4  26
ATOM     26  N   UNL     1       5.607   0.322  -0.053  1.00  0.00    -0.369 N 
ATOM     27  C   UNL     1       6.571  -0.464   0.735  1.00  0.00     0.132 C 
ATOM     28  C   UNL     1       6.172   1.166  -1.121  1.00  0.00     0.132 C 
ATOM     29  C   UNL     1       7.919   0.283   0.849  1.00  0.00     0.102 C 
ATOM     30  C   UNL     1       7.588   0.695  -1.526  1.00  0.00     0.102 C 
ATOM     31  N   UNL     1       8.571   0.615  -0.432  1.00  0.00    -0.313 NA
ATOM     32  H   UNL     1       9.038   1.515  -0.328  1.00  0.00     0.122 HD
ENDBRANCH   4  26
TORSDOF 3
