REMARK SMILES c1ccc2c(-c3coc4cc(-c5ccc(N6CCNCC6)cc5)cnc34)ccnc2c1
REMARK SMILES IDX 15 1 14 2 13 3 12 4 23 5 22 6 16 7 17 8 21 9 18 10 20 11
REMARK SMILES IDX 19 12 11 14 10 15 24 16 9 17 25 18 8 19 26 20 7 21 6 22 5 23
REMARK SMILES IDX 4 24 27 25 3 26 30 27 28 28 2 29 31 30 29 31 1 32
REMARK H PARENT 19 13
ROOT
ATOM      1  C   UNL     1       4.298   0.102   0.274  1.00  0.00     0.037 A 
ATOM      2  C   UNL     1       3.652  -0.269  -0.913  1.00  0.00     0.026 A 
ATOM      3  C   UNL     1       2.261  -0.162  -1.071  1.00  0.00     0.011 A 
ATOM      4  C   UNL     1       1.448   0.316  -0.037  1.00  0.00    -0.017 A 
ATOM      5  C   UNL     1       2.080   0.684   1.156  1.00  0.00     0.011 A 
ATOM      6  C   UNL     1       3.472   0.577   1.303  1.00  0.00     0.026 A 
ENDROOT
BRANCH   1   7
ATOM      7  N   UNL     1       5.669  -0.005   0.435  1.00  0.00    -0.369 N 
ATOM      8  C   UNL     1       6.503  -0.791  -0.489  1.00  0.00     0.132 C 
ATOM      9  C   UNL     1       6.388   0.862   1.386  1.00  0.00     0.132 C 
ATOM     10  C   UNL     1       7.837  -1.186   0.186  1.00  0.00     0.102 C 
ATOM     11  C   UNL     1       7.837   1.135   0.921  1.00  0.00     0.102 C 
ATOM     12  N   UNL     1       8.661  -0.060   0.668  1.00  0.00    -0.313 NA
ATOM     13  H   UNL     1       9.117  -0.348   1.533  1.00  0.00     0.122 HD
ENDBRANCH   1   7
BRANCH   4  14
ATOM     14  C   UNL     1      -0.011   0.429  -0.196  1.00  0.00     0.004 A 
ATOM     15  C   UNL     1      -0.691   1.607   0.151  1.00  0.00     0.059 A 
ATOM     16  C   UNL     1      -0.778  -0.635  -0.700  1.00  0.00     0.120 A 
ATOM     17  C   UNL     1      -2.066   1.598  -0.043  1.00  0.00     0.153 A 
ATOM     18  N   UNL     1      -2.123  -0.654  -0.900  1.00  0.00    -0.252 NA
ATOM     19  O   UNL     1      -2.930   2.619   0.207  1.00  0.00    -0.462 OA
ATOM     20  C   UNL     1      -2.747   0.498  -0.547  1.00  0.00     0.117 A 
ATOM     21  C   UNL     1      -4.169   2.173  -0.144  1.00  0.00     0.206 A 
ATOM     22  C   UNL     1      -4.117   0.866  -0.589  1.00  0.00     0.047 A 
BRANCH  22  23
ATOM     23  C   UNL     1      -5.274   0.129  -1.067  1.00  0.00    -0.002 A 
ATOM     24  C   UNL     1      -6.389  -0.171  -0.240  1.00  0.00     0.008 A 
ATOM     25  C   UNL     1      -5.268  -0.286  -2.400  1.00  0.00     0.029 A 
ATOM     26  C   UNL     1      -6.485   0.146   1.141  1.00  0.00     0.011 A 
ATOM     27  C   UNL     1      -7.468  -0.851  -0.850  1.00  0.00     0.071 A 
ATOM     28  C   UNL     1      -6.374  -0.951  -2.882  1.00  0.00     0.112 A 
ATOM     29  C   UNL     1      -7.619  -0.176   1.884  1.00  0.00     0.001 A 
ATOM     30  C   UNL     1      -8.587  -1.158  -0.087  1.00  0.00     0.029 A 
ATOM     31  N   UNL     1      -7.465  -1.224  -2.140  1.00  0.00    -0.256 NA
ATOM     32  C   UNL     1      -8.676  -0.827   1.266  1.00  0.00     0.002 A 
ENDBRANCH  22  23
ENDBRANCH   4  14
TORSDOF 3
