REMARK SMILES COc1cc(-c2cncc3c2CCOc2cc(N4CCNCC4)ccc2-3)cc(OC)c1OC
REMARK SMILES IDX 6 1 11 2 10 3 9 4 8 5 7 6 5 7 3 8 4 9 31 10 28 11 27 12 2 13
REMARK SMILES IDX 1 14 32 15 33 16 29 17 30 18 12 19 26 21 25 22 15 23 24 24
REMARK SMILES IDX 16 25 17 26 14 27 13 28 18 30 19 31 23 32 20 33 22 34 21 35
REMARK H PARENT 21 36
REMARK Flexibility Score:   24.900
ROOT
ATOM      1  C   UNL     1       2.172   0.410  -1.163  1.00  0.00     0.004 A 
ATOM      2  C   UNL     1       0.896   0.143  -0.607  1.00  0.00    -0.026 A 
ATOM      3  C   UNL     1      -0.267   0.295  -1.395  1.00  0.00     0.008 A 
ATOM      4  C   UNL     1      -0.050   0.640  -2.738  1.00  0.00     0.120 A 
ATOM      5  N   UNL     1       1.149   0.889  -3.311  1.00  0.00    -0.263 NA
ATOM      6  C   UNL     1       2.223   0.783  -2.507  1.00  0.00     0.120 A 
ENDROOT
BRANCH   1   7
ATOM      7  C   UNL     1       3.427   0.299  -0.409  1.00  0.00    -0.009 A 
ATOM      8  C   UNL     1       5.035   1.253   1.153  1.00  0.00     0.165 A 
ATOM      9  C   UNL     1       3.846   1.348   0.427  1.00  0.00     0.059 A 
ATOM     10  C   UNL     1       5.819   0.094   1.019  1.00  0.00     0.203 A 
ATOM     11  C   UNL     1       5.413  -0.974   0.201  1.00  0.00     0.165 A 
ATOM     12  C   UNL     1       4.221  -0.855  -0.517  1.00  0.00     0.059 A 
BRANCH   8  13
ATOM     13  O   UNL     1       5.519   2.219   1.998  1.00  0.00    -0.493 OA
ATOM     14  C   UNL     1       4.718   3.376   2.201  1.00  0.00     0.278 C 
ENDBRANCH   8  13
BRANCH  10  15
ATOM     15  O   UNL     1       6.971  -0.026   1.766  1.00  0.00    -0.490 OA
ATOM     16  C   UNL     1       8.084   0.461   1.018  1.00  0.00     0.278 C 
ENDBRANCH  10  15
BRANCH  11  17
ATOM     17  O   UNL     1       6.244  -2.063   0.167  1.00  0.00    -0.493 OA
ATOM     18  C   UNL     1       5.795  -3.208  -0.545  1.00  0.00     0.278 C 
ENDBRANCH  11  17
ENDBRANCH   1   7
BRANCH   2  19
ATOM     19  C   UNL     1       0.750  -0.389   0.800  1.00  0.00     0.078 CG0
ATOM     20  G   UNL     1       0.075  -1.751   0.707  1.00  0.00     0.000 G0
ENDBRANCH   2  19
BRANCH   3  21
ATOM     21  C   UNL     1      -1.650   0.135  -0.872  1.00  0.00     0.026 A 
ATOM     22  C   UNL     1      -2.649   1.007  -1.361  1.00  0.00     0.015 A 
ATOM     23  C   UNL     1      -2.075  -0.793   0.091  1.00  0.00     0.129 A 
ATOM     24  C   UNL     1      -3.993   0.927  -0.967  1.00  0.00     0.027 A 
ATOM     25  C   UNL     1      -3.438  -0.863   0.467  1.00  0.00     0.073 A 
ATOM     26  C   UNL     1      -4.432  -0.022  -0.047  1.00  0.00     0.040 A 
BRANCH  23  27
ATOM     27  O   UNL     1      -1.340  -1.703   0.800  1.00  0.00    -0.493 OA
BRANCH  27  28
ATOM     28  C   UNL     1       0.075  -1.751   0.707  1.00  0.00     0.234 CG0
ATOM     29  G   UNL     1       0.750  -0.389   0.800  1.00  0.00     0.000 G0
ENDBRANCH  27  28
ENDBRANCH  23  27
BRANCH  26  30
ATOM     30  N   UNL     1      -5.760  -0.123   0.329  1.00  0.00    -0.369 N 
ATOM     31  C   UNL     1      -6.286  -1.315   1.014  1.00  0.00     0.132 C 
ATOM     32  C   UNL     1      -6.680   1.019   0.199  1.00  0.00     0.132 C 
ATOM     33  C   UNL     1      -7.804  -1.465   0.759  1.00  0.00     0.102 C 
ATOM     34  C   UNL     1      -7.842   0.926   1.214  1.00  0.00     0.102 C 
ATOM     35  N   UNL     1      -8.638  -0.312   1.152  1.00  0.00    -0.313 NA
ATOM     36  H   UNL     1      -9.374  -0.205   0.454  1.00  0.00     0.122 HD
ENDBRANCH  26  30
ENDBRANCH   3  21
TORSDOF 5
