REMARK SMILES C1=N/C2=N/c3ccc(OCCN4CCCC4)c(c3)COC/C=C/COCc3cccc(c3)C(=C1)N2
REMARK SMILES IDX 5 1 6 2 7 3 8 4 17 5 18 6 4 7 3 8 1 9 2 10 34 11 33 12 35 13
REMARK SMILES IDX 31 15 30 16 32 17 29 18 27 19 28 20 26 21 25 22 24 23 19 25
REMARK SMILES IDX 20 26 21 27 22 28 23 29 9 31 10 32 11 33 12 34 13 35 16 36
REMARK SMILES IDX 14 37 15 38
REMARK H PARENT 35 14
REMARK Flexibility Score:  100.900
ROOT
ATOM      1  C   UNL     1      -0.383   2.949   0.248  1.00  0.00     0.068 A 
ATOM      2  C   UNL     1       0.655   3.054  -0.679  1.00  0.00     0.032 A 
ATOM      3  C   UNL     1       1.671   2.097  -0.743  1.00  0.00     0.049 A 
ATOM      4  C   UNL     1       1.660   1.005   0.125  1.00  0.00     0.125 A 
ATOM      5  C   UNL     1       0.617   0.875   1.060  1.00  0.00     0.022 A 
ATOM      6  C   UNL     1      -0.376   1.872   1.136  1.00  0.00     0.038 A 
ENDROOT
BRANCH   1   7
ATOM      7  N   UNL     1      -1.326   3.980   0.274  1.00  0.00    -0.213 NA
BRANCH   7   8
ATOM      8  C   UNL     1      -2.604   3.783   0.222  1.00  0.00     0.227 C 
ATOM      9  C   UNL     1      -4.608   4.858   0.162  1.00  0.00     0.117 C 
ATOM     10  N   UNL     1      -3.321   4.959   0.185  1.00  0.00    -0.221 NA
ATOM     11  C   UNL     1      -5.394   3.607   0.207  1.00  0.00     0.047 C 
ATOM     12  C   UNL     1      -4.650   2.492   0.247  1.00  0.00     0.050 C 
ATOM     13  N   UNL     1      -3.276   2.583   0.189  1.00  0.00    -0.324 N 
ATOM     14  H   UNL     1      -2.744   1.730   0.269  1.00  0.00     0.170 HD
BRANCH  12  15
ATOM     15  C   UNL     1      -5.279   1.160   0.390  1.00  0.00    -0.002 A 
ATOM     16  C   UNL     1      -6.351   0.974   1.280  1.00  0.00     0.010 A 
ATOM     17  C   UNL     1      -4.797   0.045  -0.316  1.00  0.00     0.016 A 
ATOM     18  C   UNL     1      -6.940  -0.279   1.445  1.00  0.00     0.001 A 
ATOM     19  C   UNL     1      -5.368  -1.227  -0.141  1.00  0.00    -0.022 A 
ATOM     20  C   UNL     1      -6.453  -1.371   0.734  1.00  0.00     0.006 A 
BRANCH  19  21
ATOM     21  C   UNL     1      -4.832  -2.428  -0.883  1.00  0.00     0.196 C 
BRANCH  21  22
ATOM     22  O   UNL     1      -4.640  -3.491   0.052  1.00  0.00    -0.373 OA
BRANCH  22  23
ATOM     23  C   UNL     1      -3.364  -4.115  -0.033  1.00  0.00     0.188 CG0
ATOM     24  G   UNL     1      -2.307  -3.210   0.521  1.00  0.00     0.000 G0
ENDBRANCH  22  23
ENDBRANCH  21  22
ENDBRANCH  19  21
ENDBRANCH  12  15
ENDBRANCH   7   8
ENDBRANCH   1   7
BRANCH   5  25
ATOM     25  C   UNL     1       0.501  -0.338   1.953  1.00  0.00     0.200 C 
BRANCH  25  26
ATOM     26  O   UNL     1      -0.513  -1.228   1.475  1.00  0.00    -0.373 OA
BRANCH  26  27
ATOM     27  C   UNL     1      -0.075  -1.997   0.358  1.00  0.00     0.188 C 
BRANCH  27  28
ATOM     28  C   UNL     1      -1.149  -2.940  -0.104  1.00  0.00    -0.001 C 
BRANCH  28  29
ATOM     29  C   UNL     1      -2.307  -3.210   0.521  1.00  0.00    -0.001 CG0
ATOM     30  G   UNL     1      -3.364  -4.115  -0.033  1.00  0.00     0.000 G0
ENDBRANCH  28  29
ENDBRANCH  27  28
ENDBRANCH  26  27
ENDBRANCH  25  26
ENDBRANCH   5  25
BRANCH   4  31
ATOM     31  O   UNL     1       2.593   0.001   0.111  1.00  0.00    -0.492 OA
BRANCH  31  32
ATOM     32  C   UNL     1       3.844   0.290  -0.526  1.00  0.00     0.245 C 
BRANCH  32  33
ATOM     33  C   UNL     1       4.815  -0.854  -0.196  1.00  0.00     0.126 C 
BRANCH  33  34
ATOM     34  N   UNL     1       6.137  -0.699  -0.813  1.00  0.00    -0.300 NA
ATOM     35  C   UNL     1       6.910   0.415  -0.256  1.00  0.00     0.084 C 
ATOM     36  C   UNL     1       6.978  -1.880  -0.593  1.00  0.00     0.084 C 
ATOM     37  C   UNL     1       8.325   0.125  -0.734  1.00  0.00     0.017 C 
ATOM     38  C   UNL     1       8.378  -1.386  -0.926  1.00  0.00     0.017 C 
ENDBRANCH  33  34
ENDBRANCH  32  33
ENDBRANCH  31  32
ENDBRANCH   4  31
TORSDOF 4
