REMARK SMILES COc1cc(-c2cc(-c3ccc(N4CCNCC4)cc3)cnc2C)cc(OC)c1OC
REMARK SMILES IDX 24 1 23 2 6 3 7 4 22 5 21 6 8 7 5 8 4 9 25 10 3 11 26 12
REMARK SMILES IDX 29 13 2 14 1 15 27 16 28 17 30 18 31 19 9 20 10 21 20 22
REMARK SMILES IDX 11 23 19 24 12 25 13 26 14 27 18 28 15 29 17 30 16 31
REMARK H PARENT 16 32
ROOT
ATOM      1  C   UNL     1       3.479  -2.193   2.709  1.00  0.00     0.067 C 
ATOM      2  C   UNL     1       2.132  -1.789   2.178  1.00  0.00     0.045 A 
ATOM      3  C   UNL     1       2.002  -0.900   1.102  1.00  0.00     0.004 A 
ATOM      4  C   UNL     1       0.700  -0.585   0.677  1.00  0.00     0.021 A 
ATOM      5  N   UNL     1       1.064  -2.340   2.809  1.00  0.00    -0.260 NA
ATOM      6  C   UNL     1      -0.170  -2.005   2.361  1.00  0.00     0.120 A 
ATOM      7  C   UNL     1      -0.425  -1.135   1.305  1.00  0.00     0.001 A 
ENDROOT
BRANCH   3   8
ATOM      8  C   UNL     1       3.152  -0.296   0.419  1.00  0.00    -0.009 A 
ATOM      9  C   UNL     1       3.702   0.910   0.887  1.00  0.00     0.059 A 
ATOM     10  C   UNL     1       3.707  -0.910  -0.716  1.00  0.00     0.059 A 
ATOM     11  C   UNL     1       4.794   1.496   0.245  1.00  0.00     0.165 A 
ATOM     12  C   UNL     1       4.798  -0.341  -1.377  1.00  0.00     0.165 A 
ATOM     13  C   UNL     1       5.345   0.851  -0.876  1.00  0.00     0.203 A 
BRANCH  11  14
ATOM     14  O   UNL     1       5.396   2.665   0.630  1.00  0.00    -0.493 OA
ATOM     15  C   UNL     1       4.784   3.400   1.681  1.00  0.00     0.278 C 
ENDBRANCH  11  14
BRANCH  12  16
ATOM     16  O   UNL     1       5.401  -0.868  -2.489  1.00  0.00    -0.493 OA
ATOM     17  C   UNL     1       4.787  -1.997  -3.097  1.00  0.00     0.278 C 
ENDBRANCH  12  16
BRANCH  13  18
ATOM     18  O   UNL     1       6.395   1.446  -1.543  1.00  0.00    -0.490 OA
ATOM     19  C   UNL     1       7.633   0.956  -1.030  1.00  0.00     0.278 C 
ENDBRANCH  13  18
ENDBRANCH   3   8
BRANCH   7  20
ATOM     20  C   UNL     1      -1.792  -0.813   0.873  1.00  0.00    -0.017 A 
ATOM     21  C   UNL     1      -2.765  -0.392   1.787  1.00  0.00     0.011 A 
ATOM     22  C   UNL     1      -2.175  -0.927  -0.468  1.00  0.00     0.011 A 
ATOM     23  C   UNL     1      -4.073  -0.092   1.374  1.00  0.00     0.026 A 
ATOM     24  C   UNL     1      -3.483  -0.626  -0.874  1.00  0.00     0.026 A 
ATOM     25  C   UNL     1      -4.461  -0.188   0.032  1.00  0.00     0.037 A 
BRANCH  25  26
ATOM     26  N   UNL     1      -5.760   0.088  -0.422  1.00  0.00    -0.369 N 
ATOM     27  C   UNL     1      -5.831   1.112  -1.492  1.00  0.00     0.132 C 
ATOM     28  C   UNL     1      -6.837   0.219   0.582  1.00  0.00     0.132 C 
ATOM     29  C   UNL     1      -7.250   1.173  -2.104  1.00  0.00     0.102 C 
ATOM     30  C   UNL     1      -8.221   0.296  -0.102  1.00  0.00     0.102 C 
ATOM     31  N   UNL     1      -8.322   1.374  -1.107  1.00  0.00    -0.313 NA
ATOM     32  H   UNL     1      -8.150   2.263  -0.635  1.00  0.00     0.122 HD
ENDBRANCH  25  26
ENDBRANCH   7  20
TORSDOF 6
