REMARK SMILES Nc1ncc(-c2ccc([C@@]34C[C@@H]3CN(C3CCOCC3)C4)cc2)cc1C(=O)N[C@]12CC[C@](O)(CC1)CC2
REMARK SMILES IDX 25 1 24 2 5 3 4 4 3 5 2 6 26 7 28 8 27 9 29 11 30 12 35 13
REMARK SMILES IDX 37 14 31 15 34 16 36 17 32 18 33 19 1 21 6 24 7 25 23 26
REMARK SMILES IDX 8 27 22 28 9 29 10 30 21 31 12 32 11 33 14 34 13 35 15 36
REMARK SMILES IDX 16 37 20 38 17 39 19 40 18 41
REMARK H PARENT 28 10 33 20 1 22 1 23
ROOT
ATOM      1  C   UNL     1      -3.229   0.680  -2.401  1.00  0.00     0.082 A 
ATOM      2  C   UNL     1      -2.087   0.614  -1.590  1.00  0.00     0.028 A 
ATOM      3  C   UNL     1      -0.815   0.552  -2.168  1.00  0.00     0.001 A 
ATOM      4  C   UNL     1      -0.769   0.569  -3.558  1.00  0.00     0.122 A 
ATOM      5  N   UNL     1      -1.856   0.649  -4.366  1.00  0.00    -0.238 NA
ATOM      6  C   UNL     1      -3.073   0.727  -3.792  1.00  0.00     0.136 A 
ENDROOT
BRANCH   1   7
ATOM      7  C   UNL     1      -4.578   0.744  -1.785  1.00  0.00     0.255 C 
ATOM      8  N   UNL     1      -4.758  -0.022  -0.651  1.00  0.00    -0.346 N 
ATOM      9  O   UNL     1      -5.452   1.430  -2.303  1.00  0.00    -0.269 OA
ATOM     10  H   UNL     1      -4.021  -0.666  -0.389  1.00  0.00     0.164 HD
BRANCH   8  11
ATOM     11  C   UNL     1      -6.003  -0.099   0.114  1.00  0.00     0.041 C 
ATOM     12  C   UNL     1      -7.183  -0.638  -0.733  1.00  0.00     0.031 C 
ATOM     13  C   UNL     1      -6.404   1.276   0.704  1.00  0.00     0.031 C 
ATOM     14  C   UNL     1      -5.799  -1.075   1.304  1.00  0.00     0.031 C 
ATOM     15  C   UNL     1      -8.455  -0.749   0.118  1.00  0.00     0.037 C 
ATOM     16  C   UNL     1      -7.677   1.153   1.552  1.00  0.00     0.037 C 
ATOM     17  C   UNL     1      -7.074  -1.192   2.145  1.00  0.00     0.037 C 
ATOM     18  C   UNL     1      -8.176  -0.300   1.560  1.00  0.00     0.065 C 
BRANCH  18  19
ATOM     19  O   UNL     1      -9.345  -0.419   2.352  1.00  0.00    -0.390 OA
ATOM     20  H   UNL     1     -10.030   0.157   1.968  1.00  0.00     0.211 HD
ENDBRANCH  18  19
ENDBRANCH   8  11
ENDBRANCH   1   7
BRANCH   6  21
ATOM     21  N   UNL     1      -4.165   0.772  -4.673  1.00  0.00    -0.383 N 
ATOM     22  H   UNL     1      -4.696  -0.089  -4.596  1.00  0.00     0.158 HD
ATOM     23  H   UNL     1      -4.800   1.507  -4.348  1.00  0.00     0.158 HD
ENDBRANCH   6  21
BRANCH   3  24
ATOM     24  C   UNL     1       0.394   0.474  -1.344  1.00  0.00    -0.017 A 
ATOM     25  C   UNL     1       0.701   1.480  -0.419  1.00  0.00     0.009 A 
ATOM     26  C   UNL     1       1.268  -0.616  -1.443  1.00  0.00     0.009 A 
ATOM     27  C   UNL     1       1.837   1.389   0.393  1.00  0.00     0.005 A 
ATOM     28  C   UNL     1       2.397  -0.706  -0.621  1.00  0.00     0.005 A 
ATOM     29  C   UNL     1       2.703   0.288   0.322  1.00  0.00    -0.040 A 
BRANCH  29  30
ATOM     30  C   UNL     1       3.916   0.181   1.219  1.00  0.00     0.012 C 
ATOM     31  C   UNL     1       5.273   0.463   0.600  1.00  0.00     0.097 C 
ATOM     32  C   UNL     1       4.100  -1.003   2.116  1.00  0.00     0.016 C 
ATOM     33  C   UNL     1       3.739   0.322   2.722  1.00  0.00     0.019 C 
ATOM     34  N   UNL     1       5.972  -0.822   0.764  1.00  0.00    -0.299 NA
ATOM     35  C   UNL     1       5.525  -1.451   2.013  1.00  0.00     0.089 C 
BRANCH  34  36
ATOM     36  C   UNL     1       7.430  -0.816   0.592  1.00  0.00     0.061 C 
ATOM     37  C   UNL     1       8.216   0.192   1.439  1.00  0.00     0.047 C 
ATOM     38  C   UNL     1       7.808  -0.638  -0.890  1.00  0.00     0.047 C 
ATOM     39  C   UNL     1       9.719  -0.031   1.262  1.00  0.00     0.161 C 
ATOM     40  C   UNL     1       9.265  -0.214  -1.056  1.00  0.00     0.161 C 
ATOM     41  O   UNL     1      10.050  -0.682   0.034  1.00  0.00    -0.381 OA
ENDBRANCH  34  36
ENDBRANCH  29  30
ENDBRANCH   3  24
TORSDOF 7
