REMARK SMILES Cc1c(F)ccc2c(Nc3ccnc(Nc4ccc(N5CCNCC5)cc4)n3)cnnc12
REMARK SMILES IDX 10 1 28 2 14 3 13 4 12 5 11 6 9 7 8 9 2 10 3 11 32 12 5 13
REMARK SMILES IDX 7 14 31 15 6 16 30 17 29 18 1 19 4 20 15 21 16 23 17 24
REMARK SMILES IDX 27 25 18 26 26 27 19 28 20 29 21 30 25 31 22 32 24 33 23 34
REMARK H PARENT 9 8 15 22 23 35
ROOT
ATOM      1  C   UNL     1       2.646  -0.724  -1.773  1.00  0.00     0.136 A 
ATOM      2  N   UNL     1       1.732  -0.413  -0.840  1.00  0.00    -0.195 NA
ATOM      3  C   UNL     1       0.429  -0.500  -1.158  1.00  0.00     0.229 A 
ATOM      4  N   UNL     1      -0.003  -0.879  -2.368  1.00  0.00    -0.221 NA
ATOM      5  C   UNL     1       0.927  -1.178  -3.287  1.00  0.00     0.119 A 
ATOM      6  C   UNL     1       2.274  -1.120  -3.041  1.00  0.00     0.067 A 
ENDROOT
BRANCH   1   7
ATOM      7  N   UNL     1       4.036  -0.650  -1.490  1.00  0.00    -0.338 N 
ATOM      8  H   UNL     1       4.456  -1.533  -1.754  1.00  0.00     0.168 HD
BRANCH   7   9
ATOM      9  C   UNL     1       4.677  -0.075  -0.356  1.00  0.00     0.070 A 
ATOM     10  C   UNL     1       7.926  -0.048   1.466  1.00  0.00     0.013 A 
ATOM     11  C   UNL     1       8.672  -0.959   0.718  1.00  0.00     0.128 A 
ATOM     12  C   UNL     1       6.610   0.252   1.091  1.00  0.00     0.101 A 
ATOM     13  C   UNL     1       8.135  -1.589  -0.389  1.00  0.00     0.040 A 
ATOM     14  C   UNL     1       6.026  -0.391  -0.029  1.00  0.00     0.028 A 
ATOM     15  N   UNL     1       5.920   1.157   1.801  1.00  0.00    -0.150 NA
ATOM     16  C   UNL     1       6.823  -1.309  -0.762  1.00  0.00     0.016 A 
ATOM     17  N   UNL     1       4.655   1.516   1.456  1.00  0.00    -0.156 NA
ATOM     18  C   UNL     1       4.072   0.922   0.400  1.00  0.00     0.162 A 
ATOM     19  C   UNL     1       8.555   0.638   2.647  1.00  0.00     0.050 C 
ATOM     20  F   UNL     1       9.938  -1.236   1.060  1.00  0.00    -0.207 F 
ENDBRANCH   7   9
ENDBRANCH   1   7
BRANCH   3  21
ATOM     21  N   UNL     1      -0.448  -0.180  -0.126  1.00  0.00    -0.324 N 
ATOM     22  H   UNL     1       0.084   0.061   0.696  1.00  0.00     0.170 HD
BRANCH  21  23
ATOM     23  C   UNL     1      -1.837  -0.065  -0.032  1.00  0.00     0.041 A 
ATOM     24  C   UNL     1      -2.712  -0.231  -1.104  1.00  0.00     0.028 A 
ATOM     25  C   UNL     1      -2.408   0.194   1.220  1.00  0.00     0.028 A 
ATOM     26  C   UNL     1      -4.104  -0.121  -0.939  1.00  0.00     0.028 A 
ATOM     27  C   UNL     1      -3.797   0.304   1.382  1.00  0.00     0.028 A 
ATOM     28  C   UNL     1      -4.682   0.166   0.304  1.00  0.00     0.037 A 
BRANCH  28  29
ATOM     29  N   UNL     1      -6.066   0.274   0.511  1.00  0.00    -0.369 N 
ATOM     30  C   UNL     1      -6.495   1.549   1.135  1.00  0.00     0.132 C 
ATOM     31  C   UNL     1      -6.966  -0.183  -0.566  1.00  0.00     0.132 C 
ATOM     32  C   UNL     1      -7.987   1.495   1.539  1.00  0.00     0.102 C 
ATOM     33  C   UNL     1      -8.437  -0.193  -0.091  1.00  0.00     0.102 C 
ATOM     34  N   UNL     1      -8.891   1.110   0.436  1.00  0.00    -0.313 NA
ATOM     35  H   UNL     1      -8.792   1.803  -0.306  1.00  0.00     0.122 HD
ENDBRANCH  28  29
ENDBRANCH  21  23
ENDBRANCH   3  21
TORSDOF 5
