REMARK SMILES COc1cc(Nc2nccc(Nc3cccnc3-c3ccccn3)n2)ccc1N1CCN(C)CC1
REMARK SMILES IDX 7 1 8 2 9 3 10 4 11 5 25 6 6 7 5 9 28 10 27 11 3 12 26 13
REMARK SMILES IDX 4 14 29 15 32 16 31 17 34 18 30 19 35 20 33 21 2 22 1 23
REMARK SMILES IDX 12 24 13 26 14 27 18 28 15 29 17 30 16 31 19 32 24 33 20 34
REMARK SMILES IDX 23 35 21 36 22 37
REMARK H PARENT 6 8 12 25
ROOT
ATOM      1  C   UNL     1       1.551   0.980  -0.684  1.00  0.00     0.229 A 
ATOM      2  N   UNL     1       1.296   2.207  -0.208  1.00  0.00    -0.221 NA
ATOM      3  C   UNL     1       2.357   2.969   0.106  1.00  0.00     0.119 A 
ATOM      4  C   UNL     1       3.658   2.548  -0.015  1.00  0.00     0.067 A 
ATOM      5  C   UNL     1       3.838   1.269  -0.496  1.00  0.00     0.136 A 
ATOM      6  N   UNL     1       2.793   0.499  -0.848  1.00  0.00    -0.195 NA
ENDROOT
BRANCH   1   7
ATOM      7  N   UNL     1       0.543   0.088  -1.041  1.00  0.00    -0.324 N 
ATOM      8  H   UNL     1       0.979  -0.784  -1.301  1.00  0.00     0.170 HD
BRANCH   7   9
ATOM      9  C   UNL     1      -0.846   0.068  -0.882  1.00  0.00     0.045 A 
ATOM     10  C   UNL     1      -3.701  -0.084  -0.673  1.00  0.00     0.080 A 
ATOM     11  C   UNL     1      -2.937  -1.131  -1.213  1.00  0.00     0.032 A 
ATOM     12  C   UNL     1      -2.997   1.057  -0.228  1.00  0.00     0.144 A 
ATOM     13  C   UNL     1      -1.546  -1.058  -1.320  1.00  0.00     0.028 A 
ATOM     14  C   UNL     1      -1.594   1.125  -0.357  1.00  0.00     0.074 A 
BRANCH  10  15
ATOM     15  N   UNL     1      -5.083  -0.251  -0.639  1.00  0.00    -0.366 N 
ATOM     16  N   UNL     1      -7.396   0.133   1.185  1.00  0.00    -0.303 NA
ATOM     17  C   UNL     1      -6.775   1.256   0.443  1.00  0.00     0.105 C 
ATOM     18  C   UNL     1      -6.364  -0.908   1.400  1.00  0.00     0.105 C 
ATOM     19  C   UNL     1      -6.012   0.869  -0.848  1.00  0.00     0.132 C 
ATOM     20  C   UNL     1      -5.619  -1.386   0.129  1.00  0.00     0.132 C 
ATOM     21  C   UNL     1      -8.560  -0.399   0.480  1.00  0.00     0.105 C 
ENDBRANCH  10  15
BRANCH  12  22
ATOM     22  O   UNL     1      -3.733   2.074   0.333  1.00  0.00    -0.495 OA
ATOM     23  C   UNL     1      -3.042   2.994   1.169  1.00  0.00     0.278 C 
ENDBRANCH  12  22
ENDBRANCH   7   9
ENDBRANCH   1   7
BRANCH   5  24
ATOM     24  N   UNL     1       5.163   0.784  -0.627  1.00  0.00    -0.338 N 
ATOM     25  H   UNL     1       5.649   0.899   0.271  1.00  0.00     0.168 HD
BRANCH  24  26
ATOM     26  C   UNL     1       5.488  -0.500  -1.151  1.00  0.00     0.068 A 
ATOM     27  C   UNL     1       5.085  -0.835  -2.452  1.00  0.00     0.030 A 
ATOM     28  C   UNL     1       6.170  -1.481  -0.398  1.00  0.00     0.112 A 
ATOM     29  C   UNL     1       5.360  -2.092  -2.971  1.00  0.00     0.022 A 
ATOM     30  N   UNL     1       6.448  -2.720  -0.913  1.00  0.00    -0.252 NA
ATOM     31  C   UNL     1       6.046  -2.989  -2.173  1.00  0.00     0.112 A 
BRANCH  28  32
ATOM     32  C   UNL     1       6.620  -1.272   1.008  1.00  0.00     0.091 A 
ATOM     33  N   UNL     1       6.696   0.021   1.457  1.00  0.00    -0.255 NA
ATOM     34  C   UNL     1       6.944  -2.344   1.843  1.00  0.00     0.031 A 
ATOM     35  C   UNL     1       7.115   0.222   2.728  1.00  0.00     0.112 A 
ATOM     36  C   UNL     1       7.357  -2.104   3.152  1.00  0.00     0.004 A 
ATOM     37  C   UNL     1       7.453  -0.796   3.603  1.00  0.00     0.020 A 
ENDBRANCH  28  32
ENDBRANCH  24  26
ENDBRANCH   5  24
TORSDOF 7
