REMARK SMILES C[C@H](c1ccc(-c2cnc3c(-c4ccc(S(N)(=O)=O)c5ccccc45)cnn3c2)cc1)N1CCCC1
REMARK SMILES IDX 12 1 13 2 14 3 15 4 20 5 25 6 24 7 23 8 22 9 21 10 11 11
REMARK SMILES IDX 7 12 8 13 29 14 9 15 28 16 10 17 27 18 26 19 6 20 3 21 4 22
REMARK SMILES IDX 31 23 5 24 30 25 2 26 1 27 32 28 33 29 36 30 34 31 35 32
REMARK SMILES IDX 16 33 18 34 19 35 17 36
REMARK H PARENT 17 37 17 38
ROOT
ATOM      1  C   UNL     1       4.791   0.463  -0.298  1.00  0.00    -0.005 A 
ATOM      2  C   UNL     1       4.912  -0.258  -1.493  1.00  0.00     0.011 A 
ATOM      3  C   UNL     1       5.984  -1.117  -1.692  1.00  0.00     0.023 A 
ATOM      4  C   UNL     1       6.951  -1.266  -0.692  1.00  0.00     0.090 A 
ATOM      5  C   UNL     1       6.859  -0.565   0.544  1.00  0.00     0.002 A 
ATOM      6  C   UNL     1       5.752   0.311   0.743  1.00  0.00    -0.009 A 
ATOM      7  C   UNL     1       5.646   0.988   1.984  1.00  0.00     0.009 A 
ATOM      8  C   UNL     1       6.591   0.842   2.997  1.00  0.00     0.001 A 
ATOM      9  C   UNL     1       7.673   0.004   2.803  1.00  0.00     0.001 A 
ATOM     10  C   UNL     1       7.802  -0.690   1.599  1.00  0.00     0.010 A 
ENDROOT
BRANCH   1  11
ATOM     11  C   UNL     1       3.671   1.384  -0.190  1.00  0.00     0.047 A 
ATOM     12  C   UNL     1      -0.442   1.030  -0.039  1.00  0.00     0.018 A 
ATOM     13  C   UNL     1       0.419  -0.185  -0.173  1.00  0.00     0.124 A 
ATOM     14  C   UNL     1       0.227   2.193   0.007  1.00  0.00     0.125 A 
ATOM     15  N   UNL     1       1.718  -0.206  -0.241  1.00  0.00    -0.236 NA
ATOM     16  N   UNL     1       1.615   2.209  -0.061  1.00  0.00    -0.221 N 
ATOM     17  C   UNL     1       2.340   1.015  -0.176  1.00  0.00     0.162 A 
ATOM     18  N   UNL     1       2.426   3.295  -0.026  1.00  0.00    -0.174 NA
ATOM     19  C   UNL     1       3.657   2.791  -0.113  1.00  0.00     0.146 A 
BRANCH  12  20
ATOM     20  C   UNL     1      -1.896   0.948   0.040  1.00  0.00    -0.015 A 
ATOM     21  C   UNL     1      -4.706   0.803   0.198  1.00  0.00    -0.031 A 
ATOM     22  C   UNL     1      -4.063   0.937  -1.043  1.00  0.00     0.006 A 
ATOM     23  C   UNL     1      -3.922   0.749   1.359  1.00  0.00     0.006 A 
ATOM     24  C   UNL     1      -2.670   1.008  -1.123  1.00  0.00     0.009 A 
ATOM     25  C   UNL     1      -2.528   0.822   1.281  1.00  0.00     0.009 A 
BRANCH  21  26
ATOM     26  C   UNL     1      -6.230   0.735   0.296  1.00  0.00     0.083 C 
ATOM     27  C   UNL     1      -6.794   2.135  -0.005  1.00  0.00     0.030 C 
BRANCH  26  28
ATOM     28  N   UNL     1      -6.795  -0.298  -0.595  1.00  0.00    -0.297 NA
ATOM     29  C   UNL     1      -6.358  -1.655  -0.241  1.00  0.00     0.085 C 
ATOM     30  C   UNL     1      -8.259  -0.371  -0.565  1.00  0.00     0.085 C 
ATOM     31  C   UNL     1      -7.297  -2.537  -1.048  1.00  0.00     0.017 C 
ATOM     32  C   UNL     1      -8.570  -1.717  -1.204  1.00  0.00     0.017 C 
ENDBRANCH  26  28
ENDBRANCH  21  26
ENDBRANCH  12  20
ENDBRANCH   1  11
BRANCH   4  33
ATOM     33  S   UNL     1       8.319  -2.357  -0.996  1.00  0.00     0.238 S 
ATOM     34  O   UNL     1       8.162  -3.535  -0.175  1.00  0.00    -0.207 OA
ATOM     35  O   UNL     1       9.536  -1.580  -1.023  1.00  0.00    -0.207 OA
BRANCH  33  36
ATOM     36  N   UNL     1       8.126  -2.901  -2.578  1.00  0.00    -0.225 NA
ATOM     37  H   UNL     1       8.006  -3.915  -2.566  1.00  0.00     0.137 HD
ATOM     38  H   UNL     1       8.926  -2.592  -3.133  1.00  0.00     0.137 HD
ENDBRANCH  33  36
ENDBRANCH   4  33
TORSDOF 6
