REMARK SMILES Cc1cccc2c(Nc3ccnc(Nc4cccc(CN5CCN(C)CC5)c4)n3)cnnc12
REMARK SMILES IDX 14 1 15 3 19 4 28 5 18 6 17 7 16 8 20 9 21 10 24 11 23 12
REMARK SMILES IDX 26 13 22 14 27 15 25 16 13 17 12 18 29 19 11 20 9 21 10 22
REMARK SMILES IDX 8 23 7 25 6 26 30 27 5 28 33 29 31 30 4 31 2 32 32 33 3 34
REMARK SMILES IDX 1 35
REMARK H PARENT 14 2 8 24
ROOT
ATOM      1  N   UNL     1       0.536  -2.266  -0.801  1.00  0.00    -0.324 N 
ATOM      2  H   UNL     1       1.324  -2.889  -0.716  1.00  0.00     0.170 HD
ENDROOT
BRANCH   1   3
ATOM      3  C   UNL     1       0.821  -0.910  -1.007  1.00  0.00     0.041 A 
ATOM      4  C   UNL     1       2.533   0.833  -1.282  1.00  0.00    -0.032 A 
ATOM      5  C   UNL     1       2.167  -0.511  -1.092  1.00  0.00     0.031 A 
ATOM      6  C   UNL     1       1.526   1.796  -1.410  1.00  0.00     0.005 A 
ATOM      7  C   UNL     1       0.189   1.422  -1.336  1.00  0.00     0.002 A 
ATOM      8  C   UNL     1      -0.155   0.082  -1.131  1.00  0.00     0.026 A 
BRANCH   4   9
ATOM      9  C   UNL     1       3.991   1.239  -1.339  1.00  0.00     0.120 C 
BRANCH   9  10
ATOM     10  N   UNL     1       4.378   2.152  -0.252  1.00  0.00    -0.297 NA
ATOM     11  N   UNL     1       6.811   1.071   1.114  1.00  0.00    -0.304 NA
ATOM     12  C   UNL     1       5.475   0.488   1.336  1.00  0.00     0.099 C 
ATOM     13  C   UNL     1       6.887   1.695  -0.218  1.00  0.00     0.099 C 
ATOM     14  C   UNL     1       4.344   1.509   1.079  1.00  0.00     0.100 C 
ATOM     15  C   UNL     1       5.735   2.696  -0.467  1.00  0.00     0.100 C 
ATOM     16  C   UNL     1       7.859   0.074   1.294  1.00  0.00     0.105 C 
ENDBRANCH   9  10
ENDBRANCH   4   9
ENDBRANCH   1   3
BRANCH   1  17
ATOM     17  C   UNL     1      -0.632  -2.980  -0.549  1.00  0.00     0.229 A 
ATOM     18  N   UNL     1      -0.451  -4.285  -0.295  1.00  0.00    -0.221 NA
ATOM     19  N   UNL     1      -1.837  -2.398  -0.547  1.00  0.00    -0.195 NA
ATOM     20  C   UNL     1      -1.541  -5.006   0.010  1.00  0.00     0.119 A 
ATOM     21  C   UNL     1      -2.918  -3.141  -0.260  1.00  0.00     0.136 A 
ATOM     22  C   UNL     1      -2.805  -4.478   0.055  1.00  0.00     0.067 A 
BRANCH  21  23
ATOM     23  N   UNL     1      -4.196  -2.532  -0.160  1.00  0.00    -0.338 N 
ATOM     24  H   UNL     1      -4.899  -3.169  -0.527  1.00  0.00     0.168 HD
BRANCH  23  25
ATOM     25  C   UNL     1      -4.518  -1.219  -0.618  1.00  0.00     0.070 A 
ATOM     26  C   UNL     1      -5.503  -0.457   0.046  1.00  0.00     0.028 A 
ATOM     27  C   UNL     1      -4.007  -0.706  -1.803  1.00  0.00     0.162 A 
ATOM     28  C   UNL     1      -6.115  -0.886   1.244  1.00  0.00     0.012 A 
ATOM     29  C   UNL     1      -5.871   0.788  -0.506  1.00  0.00     0.098 A 
ATOM     30  N   UNL     1      -4.382   0.478  -2.314  1.00  0.00    -0.156 NA
ATOM     31  C   UNL     1      -7.079  -0.108   1.879  1.00  0.00     0.001 A 
ATOM     32  C   UNL     1      -6.832   1.568   0.152  1.00  0.00    -0.023 A 
ATOM     33  N   UNL     1      -5.314   1.220  -1.651  1.00  0.00    -0.150 NA
ATOM     34  C   UNL     1      -7.440   1.116   1.334  1.00  0.00     0.006 A 
ATOM     35  C   UNL     1      -7.241   2.897  -0.426  1.00  0.00     0.047 C 
ENDBRANCH  23  25
ENDBRANCH  21  23
ENDBRANCH   1  17
TORSDOF 6
