REMARK SMILES COc1cc(-c2cncc3c2CN(C)Cc2cc(N4CCN(C)CC4)ccc2-3)cc(OC)c1OC
REMARK SMILES IDX 14 1 13 2 12 3 11 4 6 5 7 6 8 7 9 8 10 9 28 10 27 11 26 12
REMARK SMILES IDX 18 13 17 14 16 15 15 16 5 17 4 18 29 19 3 20 30 21 33 22
REMARK SMILES IDX 2 23 1 24 31 25 32 26 34 27 35 28 19 29 20 30 25 31 21 32
REMARK SMILES IDX 24 33 22 34 23 35
REMARK H PARENT
ROOT
ATOM      1  C   UNL     1      -0.624  -2.374   1.772  1.00  0.00     0.106 C 
ATOM      2  N   UNL     1      -0.241  -1.189   1.005  1.00  0.00    -0.298 NA
ATOM      3  C   UNL     1      -1.432  -0.513   0.487  1.00  0.00     0.121 C 
ATOM      4  C   UNL     1      -1.297   0.649  -0.498  1.00  0.00    -0.015 A 
ATOM      5  C   UNL     1      -2.526   1.142  -1.044  1.00  0.00     0.005 A 
ATOM      6  C   UNL     1      -2.475   2.158  -1.999  1.00  0.00     0.120 A 
ATOM      7  N   UNL     1      -1.342   2.708  -2.458  1.00  0.00    -0.263 NA
ATOM      8  C   UNL     1      -0.199   2.238  -1.913  1.00  0.00     0.120 A 
ATOM      9  C   UNL     1      -0.081   1.246  -0.917  1.00  0.00     0.005 A 
ATOM     10  C   UNL     1       1.290   0.909  -0.443  1.00  0.00    -0.012 A 
ATOM     11  C   UNL     1       2.263   1.920  -0.309  1.00  0.00     0.011 A 
ATOM     12  C   UNL     1       3.595   1.645   0.042  1.00  0.00     0.026 A 
ATOM     13  C   UNL     1       4.032   0.343   0.280  1.00  0.00     0.037 A 
ATOM     14  C   UNL     1       3.051  -0.656   0.216  1.00  0.00     0.031 A 
ATOM     15  C   UNL     1       1.703  -0.394  -0.132  1.00  0.00    -0.024 A 
ATOM     16  C   UNL     1       0.707  -1.521  -0.053  1.00  0.00     0.120 C 
ENDROOT
BRANCH   5  17
ATOM     17  C   UNL     1      -3.849   0.622  -0.659  1.00  0.00    -0.009 A 
ATOM     18  C   UNL     1      -4.475   1.068   0.519  1.00  0.00     0.059 A 
ATOM     19  C   UNL     1      -4.503  -0.324  -1.469  1.00  0.00     0.059 A 
ATOM     20  C   UNL     1      -5.722   0.568   0.899  1.00  0.00     0.165 A 
ATOM     21  C   UNL     1      -5.756  -0.827  -1.115  1.00  0.00     0.165 A 
ATOM     22  C   UNL     1      -6.362  -0.364   0.065  1.00  0.00     0.203 A 
BRANCH  20  23
ATOM     23  O   UNL     1      -6.397   0.942   2.032  1.00  0.00    -0.493 OA
ATOM     24  C   UNL     1      -5.652   1.617   3.036  1.00  0.00     0.278 C 
ENDBRANCH  20  23
BRANCH  21  25
ATOM     25  O   UNL     1      -6.459  -1.757  -1.836  1.00  0.00    -0.493 OA
ATOM     26  C   UNL     1      -5.897  -2.205  -3.061  1.00  0.00     0.278 C 
ENDBRANCH  21  25
BRANCH  22  27
ATOM     27  O   UNL     1      -7.574  -0.891   0.454  1.00  0.00    -0.490 OA
ATOM     28  C   UNL     1      -8.638  -0.116  -0.098  1.00  0.00     0.278 C 
ENDBRANCH  22  27
ENDBRANCH   5  17
BRANCH  13  29
ATOM     29  N   UNL     1       5.352   0.014   0.624  1.00  0.00    -0.369 N 
ATOM     30  C   UNL     1       6.275   1.113   0.976  1.00  0.00     0.132 C 
ATOM     31  C   UNL     1       5.973  -1.012  -0.248  1.00  0.00     0.132 C 
ATOM     32  C   UNL     1       7.611   0.565   1.531  1.00  0.00     0.105 C 
ATOM     33  C   UNL     1       7.327  -1.494   0.330  1.00  0.00     0.105 C 
ATOM     34  N   UNL     1       8.295  -0.429   0.674  1.00  0.00    -0.303 NA
ATOM     35  C   UNL     1       8.867   0.186  -0.521  1.00  0.00     0.105 C 
ENDBRANCH  13  29
TORSDOF 5
