REMARK SMILES COc1ccc(-c2cnc3c(-c4cccc5ncccc45)cnn3c2)cc1
REMARK SMILES IDX 3 1 4 2 5 3 6 4 26 5 27 6 2 7 1 8 7 9 25 10 8 11 24 12 9 13
REMARK SMILES IDX 10 14 23 15 11 16 22 17 12 18 21 19 13 20 20 21 16 22 14 23
REMARK SMILES IDX 19 24 17 25 15 26 18 27
REMARK H PARENT
ROOT
ATOM      1  C   UNL     1       5.926   0.166  -0.602  1.00  0.00     0.118 A 
ATOM      2  C   UNL     1       4.976   0.567  -1.543  1.00  0.00     0.047 A 
ATOM      3  C   UNL     1       3.610   0.502  -1.254  1.00  0.00     0.012 A 
ATOM      4  C   UNL     1       3.171   0.033  -0.011  1.00  0.00    -0.015 A 
ATOM      5  C   UNL     1       4.128  -0.370   0.931  1.00  0.00     0.012 A 
ATOM      6  C   UNL     1       5.496  -0.304   0.638  1.00  0.00     0.047 A 
ENDROOT
BRANCH   1   7
ATOM      7  O   UNL     1       7.224   0.282  -1.014  1.00  0.00    -0.497 OA
ATOM      8  C   UNL     1       8.231  -0.108  -0.089  1.00  0.00     0.278 C 
ENDBRANCH   1   7
BRANCH   4   9
ATOM      9  C   UNL     1       1.736  -0.045   0.289  1.00  0.00     0.019 A 
ATOM     10  C   UNL     1       1.188   0.445   1.414  1.00  0.00     0.125 A 
ATOM     11  C   UNL     1       0.749  -0.667  -0.654  1.00  0.00     0.124 A 
ATOM     12  N   UNL     1      -0.182   0.358   1.634  1.00  0.00    -0.221 N 
ATOM     13  N   UNL     1      -0.536  -0.763  -0.481  1.00  0.00    -0.236 NA
ATOM     14  C   UNL     1      -1.024  -0.238   0.687  1.00  0.00     0.162 A 
ATOM     15  N   UNL     1      -0.868   0.802   2.716  1.00  0.00    -0.174 NA
ATOM     16  C   UNL     1      -2.302  -0.142   1.205  1.00  0.00     0.047 A 
ATOM     17  C   UNL     1      -2.137   0.486   2.455  1.00  0.00     0.146 A 
BRANCH  16  18
ATOM     18  C   UNL     1      -3.504  -0.637   0.556  1.00  0.00    -0.004 A 
ATOM     19  C   UNL     1      -4.584   0.224   0.207  1.00  0.00     0.008 A 
ATOM     20  C   UNL     1      -3.595  -2.014   0.304  1.00  0.00     0.010 A 
ATOM     21  C   UNL     1      -4.583   1.628   0.380  1.00  0.00     0.012 A 
ATOM     22  C   UNL     1      -5.749  -0.332  -0.369  1.00  0.00     0.071 A 
ATOM     23  C   UNL     1      -4.742  -2.544  -0.270  1.00  0.00     0.003 A 
ATOM     24  C   UNL     1      -5.685   2.392   0.014  1.00  0.00     0.021 A 
ATOM     25  N   UNL     1      -6.820   0.403  -0.720  1.00  0.00    -0.256 NA
ATOM     26  C   UNL     1      -5.804  -1.700  -0.593  1.00  0.00     0.029 A 
ATOM     27  C   UNL     1      -6.771   1.737  -0.524  1.00  0.00     0.112 A 
ENDBRANCH  16  18
ENDBRANCH   4   9
TORSDOF 3
