REMARK SMILES c1cc(-c2cnn3cc(-c4ccc(OCCN5CCCCC5)cc4)cnc23)ccn1
REMARK SMILES IDX 14 1 13 2 10 3 11 4 24 5 12 6 23 7 9 8 27 9 4 10 7 11 26 12
REMARK SMILES IDX 5 13 6 14 8 15 25 16 3 17 2 18 28 19 1 20 29 21 30 22 15 23
REMARK SMILES IDX 16 24 17 25 18 26 22 27 19 28 21 29 20 30
REMARK H PARENT
ROOT
ATOM      1  O   UNL     1      -3.175  -1.034   0.849  1.00  0.00    -0.492 OA
ENDROOT
BRANCH   1   2
ATOM      2  C   UNL     1      -1.831  -0.845   0.696  1.00  0.00     0.119 A 
ATOM      3  C   UNL     1       0.927  -0.261   0.601  1.00  0.00    -0.015 A 
ATOM      4  C   UNL     1       0.361  -1.200  -0.272  1.00  0.00     0.012 A 
ATOM      5  C   UNL     1       0.095   0.380   1.526  1.00  0.00     0.012 A 
ATOM      6  C   UNL     1      -1.008  -1.490  -0.226  1.00  0.00     0.047 A 
ATOM      7  C   UNL     1      -1.271   0.088   1.571  1.00  0.00     0.047 A 
BRANCH   3   8
ATOM      8  C   UNL     1       2.364   0.030   0.549  1.00  0.00     0.019 A 
ATOM      9  C   UNL     1       5.136   0.410   0.412  1.00  0.00     0.162 A 
ATOM     10  C   UNL     1       6.402   0.967   0.324  1.00  0.00     0.047 A 
ATOM     11  N   UNL     1       4.238   1.487   0.419  1.00  0.00    -0.221 N 
ATOM     12  N   UNL     1       4.693  -0.887   0.473  1.00  0.00    -0.236 NA
ATOM     13  C   UNL     1       6.167   2.358   0.286  1.00  0.00     0.146 A 
ATOM     14  N   UNL     1       4.875   2.680   0.345  1.00  0.00    -0.174 NA
ATOM     15  C   UNL     1       2.866   1.274   0.488  1.00  0.00     0.125 A 
ATOM     16  C   UNL     1       3.404  -1.050   0.537  1.00  0.00     0.124 A 
BRANCH  10  17
ATOM     17  C   UNL     1       7.658   0.235   0.267  1.00  0.00    -0.010 A 
ATOM     18  C   UNL     1       7.829  -0.979   0.935  1.00  0.00     0.029 A 
ATOM     19  C   UNL     1       8.738   0.751  -0.454  1.00  0.00     0.029 A 
ATOM     20  C   UNL     1       9.055  -1.619   0.851  1.00  0.00     0.111 A 
ATOM     21  C   UNL     1       9.925   0.036  -0.478  1.00  0.00     0.111 A 
ATOM     22  N   UNL     1      10.109  -1.138   0.161  1.00  0.00    -0.265 NA
ENDBRANCH  10  17
ENDBRANCH   3   8
ENDBRANCH   1   2
BRANCH   1  23
ATOM     23  C   UNL     1      -3.821  -1.925  -0.064  1.00  0.00     0.245 C 
BRANCH  23  24
ATOM     24  C   UNL     1      -5.333  -1.976   0.241  1.00  0.00     0.126 C 
BRANCH  24  25
ATOM     25  N   UNL     1      -6.162  -0.847  -0.211  1.00  0.00    -0.300 NA
ATOM     26  C   UNL     1      -5.739   0.449   0.313  1.00  0.00     0.084 C 
ATOM     27  C   UNL     1      -6.389  -0.833  -1.661  1.00  0.00     0.084 C 
ATOM     28  C   UNL     1      -6.857   1.481   0.124  1.00  0.00     0.016 C 
ATOM     29  C   UNL     1      -6.775   0.546  -2.213  1.00  0.00     0.016 C 
ATOM     30  C   UNL     1      -7.598   1.337  -1.207  1.00  0.00     0.003 C 
ENDBRANCH  24  25
ENDBRANCH  23  24
ENDBRANCH   1  23
TORSDOF 6
