REMARK SMILES CCOC1(c2ccc(-c3cc4c(N5CCN(C(=O)O[C@@H]6CCOC6)CC5)ccnn4c3)nc2)CCN(C(C)C)CC1
REMARK SMILES IDX 8 1 32 2 33 3 5 4 6 5 7 6 9 7 12 8 27 9 11 10 28 11 30 12
REMARK SMILES IDX 10 13 29 14 31 15 13 16 17 17 16 18 15 19 25 20 14 21 26 22
REMARK SMILES IDX 18 23 19 24 20 25 24 26 21 27 23 28 22 29 4 30 34 31 41 32
REMARK SMILES IDX 35 33 40 34 36 35 3 36 2 37 1 38 37 39 38 40 39 41
REMARK H PARENT
ROOT
ATOM      1  C   UNL     1      -1.153   0.320  -1.133  1.00  0.00     0.072 A 
ATOM      2  N   UNL     1      -1.912  -0.290  -2.069  1.00  0.00    -0.256 NA
ATOM      3  C   UNL     1      -3.151  -0.693  -1.701  1.00  0.00     0.118 A 
ATOM      4  C   UNL     1      -3.709  -0.513  -0.434  1.00  0.00     0.002 A 
ATOM      5  C   UNL     1      -2.879   0.087   0.521  1.00  0.00     0.010 A 
ATOM      6  C   UNL     1      -1.591   0.506   0.172  1.00  0.00     0.029 A 
ENDROOT
BRANCH   1   7
ATOM      7  C   UNL     1       0.134   0.832  -1.578  1.00  0.00     0.021 A 
ATOM      8  C   UNL     1       3.603   2.113  -1.634  1.00  0.00     0.065 A 
ATOM      9  C   UNL     1       4.113   2.736  -2.713  1.00  0.00     0.050 A 
ATOM     10  C   UNL     1       2.258   1.642  -1.752  1.00  0.00     0.089 A 
ATOM     11  C   UNL     1       3.298   2.817  -3.941  1.00  0.00     0.136 A 
ATOM     12  N   UNL     1       1.622   1.762  -2.975  1.00  0.00    -0.238 N 
ATOM     13  C   UNL     1       1.338   1.100  -0.864  1.00  0.00     0.042 A 
ATOM     14  N   UNL     1       2.108   2.345  -4.101  1.00  0.00    -0.176 NA
ATOM     15  C   UNL     1       0.366   1.231  -2.878  1.00  0.00     0.123 A 
BRANCH   8  16
ATOM     16  N   UNL     1       4.346   1.917  -0.459  1.00  0.00    -0.366 N 
ATOM     17  C   UNL     1       8.100   1.097   1.197  1.00  0.00     0.410 C 
ATOM     18  N   UNL     1       6.732   1.186   1.058  1.00  0.00    -0.305 N 
ATOM     19  C   UNL     1       5.964   0.182   0.316  1.00  0.00     0.144 C 
ATOM     20  C   UNL     1       6.051   2.455   1.307  1.00  0.00     0.144 C 
ATOM     21  C   UNL     1       4.482   0.563   0.133  1.00  0.00     0.138 C 
ATOM     22  C   UNL     1       5.311   2.930   0.044  1.00  0.00     0.138 C 
ATOM     23  O   UNL     1       8.812   2.000   1.623  1.00  0.00    -0.224 OA
BRANCH  17  24
ATOM     24  O   UNL     1       8.582  -0.106   0.775  1.00  0.00    -0.444 OA
BRANCH  24  25
ATOM     25  C   UNL     1      10.019  -0.218   0.787  1.00  0.00     0.206 C 
ATOM     26  C   UNL     1      10.545  -0.544   2.180  1.00  0.00     0.205 C 
ATOM     27  C   UNL     1      10.394  -1.456   0.006  1.00  0.00     0.076 C 
ATOM     28  O   UNL     1      10.611  -1.979   2.298  1.00  0.00    -0.377 OA
ATOM     29  C   UNL     1      10.229  -2.549   1.038  1.00  0.00     0.164 C 
ENDBRANCH  24  25
ENDBRANCH  17  24
ENDBRANCH   8  16
ENDBRANCH   1   7
BRANCH   4  30
ATOM     30  C   UNL     1      -5.162  -0.926  -0.177  1.00  0.00     0.097 C 
ATOM     31  C   UNL     1      -5.650  -0.749   1.275  1.00  0.00     0.056 C 
ATOM     32  C   UNL     1      -6.066  -0.039  -1.063  1.00  0.00     0.056 C 
ATOM     33  C   UNL     1      -7.155  -0.998   1.422  1.00  0.00     0.088 C 
ATOM     34  C   UNL     1      -7.555  -0.309  -0.841  1.00  0.00     0.088 C 
ATOM     35  N   UNL     1      -7.949  -0.099   0.564  1.00  0.00    -0.301 NA
BRANCH  30  36
ATOM     36  O   UNL     1      -5.376  -2.286  -0.616  1.00  0.00    -0.370 OA
BRANCH  36  37
ATOM     37  C   UNL     1      -4.581  -3.302  -0.002  1.00  0.00     0.158 C 
ATOM     38  C   UNL     1      -5.494  -4.318   0.663  1.00  0.00     0.035 C 
ENDBRANCH  36  37
ENDBRANCH  30  36
BRANCH  35  39
ATOM     39  C   UNL     1      -9.415  -0.289   0.748  1.00  0.00     0.050 C 
ATOM     40  C   UNL     1     -10.228   0.726  -0.078  1.00  0.00     0.024 C 
ATOM     41  C   UNL     1      -9.849  -0.137   2.218  1.00  0.00     0.024 C 
ENDBRANCH  35  39
ENDBRANCH   4  30
TORSDOF 8
