REMARK SMILES COc1cc2c(-c3cnn4cc(N5CCC(N6CCN(C)CC6)CC5)cnc34)ccnc2cc1F
REMARK SMILES IDX 7 1 28 2 10 3 11 4 12 5 26 6 27 7 9 8 8 9 6 10 34 11 33 12
REMARK SMILES IDX 3 13 32 14 4 15 5 16 31 17 30 18 29 19 35 20 2 21 1 22 13 23
REMARK SMILES IDX 14 24 25 25 15 26 24 27 16 28 17 29 18 30 23 31 19 32 22 33
REMARK SMILES IDX 20 34 21 35
REMARK H PARENT
ROOT
ATOM      1  C   UNL     1      -3.835   0.541   1.424  1.00  0.00     0.047 A 
ATOM      2  C   UNL     1      -2.616   0.367   0.801  1.00  0.00     0.162 A 
ATOM      3  N   UNL     1      -2.221   1.634   0.362  1.00  0.00    -0.220 N 
ATOM      4  C   UNL     1      -1.034   1.812  -0.336  1.00  0.00     0.142 A 
ATOM      5  C   UNL     1      -0.223   0.782  -0.631  1.00  0.00     0.074 A 
ATOM      6  C   UNL     1      -0.738  -0.532  -0.077  1.00  0.00     0.141 A 
ATOM      7  N   UNL     1      -1.841  -0.738   0.582  1.00  0.00    -0.234 NA
ATOM      8  N   UNL     1      -3.129   2.589   0.695  1.00  0.00    -0.174 NA
ATOM      9  C   UNL     1      -4.085   1.925   1.344  1.00  0.00     0.146 A 
ENDROOT
BRANCH   1  10
ATOM     10  C   UNL     1      -4.614  -0.521   2.036  1.00  0.00    -0.002 A 
ATOM     11  C   UNL     1      -8.476  -1.661   0.805  1.00  0.00     0.167 A 
ATOM     12  C   UNL     1      -7.856  -2.261   1.895  1.00  0.00     0.072 A 
ATOM     13  C   UNL     1      -7.841  -0.666   0.068  1.00  0.00     0.155 A 
ATOM     14  C   UNL     1      -6.585  -1.886   2.292  1.00  0.00     0.074 A 
ATOM     15  C   UNL     1      -6.560  -0.275   0.457  1.00  0.00     0.060 A 
ATOM     16  C   UNL     1      -5.912  -0.868   1.578  1.00  0.00     0.012 A 
ATOM     17  N   UNL     1      -6.049  -2.520   3.347  1.00  0.00    -0.256 NA
ATOM     18  C   UNL     1      -4.805  -2.177   3.736  1.00  0.00     0.112 A 
ATOM     19  C   UNL     1      -4.056  -1.196   3.124  1.00  0.00     0.029 A 
ATOM     20  F   UNL     1      -9.711  -2.066   0.467  1.00  0.00    -0.203 F 
BRANCH  13  21
ATOM     21  O   UNL     1      -8.548  -0.158  -0.986  1.00  0.00    -0.494 OA
ATOM     22  C   UNL     1      -7.913   0.830  -1.786  1.00  0.00     0.278 C 
ENDBRANCH  13  21
ENDBRANCH   1  10
BRANCH   5  23
ATOM     23  N   UNL     1       0.977   0.837  -1.340  1.00  0.00    -0.369 N 
ATOM     24  C   UNL     1       1.854   2.013  -1.338  1.00  0.00     0.118 C 
ATOM     25  C   UNL     1       1.553  -0.292  -2.075  1.00  0.00     0.118 C 
ATOM     26  C   UNL     1       3.180   1.653  -0.665  1.00  0.00     0.040 C 
ATOM     27  C   UNL     1       2.863  -0.723  -1.423  1.00  0.00     0.040 C 
ATOM     28  C   UNL     1       3.870   0.449  -1.352  1.00  0.00     0.060 C 
BRANCH  28  29
ATOM     29  N   UNL     1       5.125   0.066  -0.655  1.00  0.00    -0.298 NA
ATOM     30  C   UNL     1       6.062   1.206  -0.496  1.00  0.00     0.100 C 
ATOM     31  C   UNL     1       5.840  -1.065  -1.272  1.00  0.00     0.100 C 
ATOM     32  C   UNL     1       7.555   0.829  -0.303  1.00  0.00     0.099 C 
ATOM     33  C   UNL     1       7.094  -1.523  -0.471  1.00  0.00     0.099 C 
ATOM     34  N   UNL     1       7.799  -0.486   0.309  1.00  0.00    -0.304 NA
ATOM     35  C   UNL     1       7.370  -0.502   1.709  1.00  0.00     0.105 C 
ENDBRANCH  28  29
ENDBRANCH   5  23
TORSDOF 4
