MODEL 1
REMARK VINA RESULT:    -8.945      0.000      0.000
REMARK INTER + INTRA:         -13.968
REMARK INTER:                 -12.310
REMARK INTRA:                  -1.658
REMARK UNBOUND:                -0.839
REMARK  Name = docking_results/ligand_3d.pdb
REMARK  12 active torsions:
REMARK  status: ('A' for Active; 'I' for Inactive)
REMARK    1  A    between atoms: C_1  and  C_2
REMARK    2  A    between atoms: C_2  and  C_3
REMARK    3  A    between atoms: C_3  and  C_7
REMARK    4  A    between atoms: C_7  and  C_8
REMARK    5  A    between atoms: C_12  and  C_13
REMARK    6  A    between atoms: C_15  and  C_16
REMARK    7  A    between atoms: C_16  and  C_17
REMARK    8  A    between atoms: C_17  and  C_18
REMARK    9  A    between atoms: C_18  and  C_19
REMARK   10  A    between atoms: C_18  and  C_20
REMARK   11  A    between atoms: C_23  and  C_24
REMARK   12  A    between atoms: C_23  and  C_25
REMARK                            x       y       z     vdW  Elec       q    Type
REMARK                         _______ _______ _______ _____ _____    ______ ____
ROOT
ATOM      1  C   UNL     1      20.776 -15.817  37.123  0.00  0.00    +0.000 C 
ATOM      2  N   UNL     1      19.405 -15.341  36.946  0.00  0.00    +0.000 N 
ATOM      3  C   UNL     1      19.085 -14.266  37.881  0.00  0.00    +0.000 C 
ATOM      4  C   UNL     1      20.085 -13.125  37.753  0.00  0.00    +0.000 C 
ATOM      5  C   UNL     1      21.502 -13.663  37.898  0.00  0.00    +0.000 C 
ATOM      6  O   UNL     1      21.713 -14.748  36.991  0.00  0.00    +0.000 OA
ATOM      7  H   UNL     1      18.762 -16.117  37.101  0.00  0.00    +0.000 HD
ATOM      8  H   UNL     1      19.313 -14.978  35.997  0.00  0.00    +0.000 HD
ENDROOT
BRANCH   5   9
ATOM      9  C   UNL     1      22.610 -12.633  37.645  0.00  0.00    +0.000 C 
ATOM     10  C   UNL     1      24.080 -12.931  38.042  0.00  0.00    +0.000 C 
ATOM     11  C   UNL     1      24.313 -11.396  38.117  0.00  0.00    +0.000 C 
ATOM     12  C   UNL     1      22.763 -11.253  38.408  0.00  0.00    +0.000 C 
ATOM     13  C   UNL     1      22.111 -10.094  37.647  0.00  0.00    +0.000 C 
ATOM     14  C   UNL     1      22.364 -11.205  39.883  0.00  0.00    +0.000 C 
BRANCH  11  15
ATOM     15  C   UNL     1      25.368 -10.959  39.130  0.00  0.00    +0.000 C 
BRANCH  15  16
ATOM     16  C   UNL     1      26.159  -9.757  38.604  0.00  0.00    +0.000 C 
BRANCH  16  17
ATOM     17  C   UNL     1      25.900  -8.483  39.421  0.00  0.00    +0.000 C 
ATOM     18  C   UNL     1      24.494  -7.941  39.169  0.00  0.00    +0.000 C 
BRANCH  17  19
ATOM     19  C   UNL     1      26.918  -7.406  39.127  0.00  0.00    +0.000 C 
ATOM     20  O   UNL     1      27.930  -7.545  38.460  0.00  0.00    +0.000 OA
ATOM     21  O   UNL     1      26.626  -6.215  39.681  0.00  0.00    +0.000 OA
ENDBRANCH  17  19
ENDBRANCH  16  17
ENDBRANCH  15  16
ENDBRANCH  11  15
ENDBRANCH   5   9
BRANCH   1  22
ATOM     22  C   UNL     1      21.029 -16.658  38.400  0.00  0.00    +0.000 C 
BRANCH  22  23
ATOM     23  C   UNL     1      22.384 -17.344  38.440  0.00  0.00    +0.000 C 
ATOM     24  C   UNL     1      22.602 -18.442  37.763  0.00  0.00    +0.000 C 
ATOM     25  C   UNL     1      22.794 -19.443  37.129  0.00  0.00    +0.000 C 
ATOM     26  N   UNL     1      22.975 -20.416  36.502  0.00  0.00    +0.000 NA
ATOM     27  H   UNL     1      23.833 -20.550  36.038  0.00  0.00    +0.000 HD
BRANCH  23  29
ATOM     28  C   UNL     1      24.791 -16.491  38.366  0.00  0.00    +0.000 C 
ATOM     29  C   UNL     1      23.485 -16.582  39.147  0.00  0.00    +0.000 C 
ENDBRANCH  23  29
ENDBRANCH  22  23
ENDBRANCH   1  22
TORSDOF 8
ENDMDL
MODEL 2
REMARK VINA RESULT:    -8.798      2.111      2.831
REMARK INTER + INTRA:         -13.752
REMARK INTER:                 -12.156
REMARK INTRA:                  -1.595
REMARK UNBOUND:                -0.839
REMARK  Name = docking_results/ligand_3d.pdb
REMARK  12 active torsions:
REMARK  status: ('A' for Active; 'I' for Inactive)
REMARK    1  A    between atoms: C_1  and  C_2
REMARK    2  A    between atoms: C_2  and  C_3
REMARK    3  A    between atoms: C_3  and  C_7
REMARK    4  A    between atoms: C_7  and  C_8
REMARK    5  A    between atoms: C_12  and  C_13
REMARK    6  A    between atoms: C_15  and  C_16
REMARK    7  A    between atoms: C_16  and  C_17
REMARK    8  A    between atoms: C_17  and  C_18
REMARK    9  A    between atoms: C_18  and  C_19
REMARK   10  A    between atoms: C_18  and  C_20
REMARK   11  A    between atoms: C_23  and  C_24
REMARK   12  A    between atoms: C_23  and  C_25
REMARK                            x       y       z     vdW  Elec       q    Type
REMARK                         _______ _______ _______ _____ _____    ______ ____
ROOT
ATOM      1  C   UNL     1      20.880 -16.370  37.042  0.00  0.00    +0.000 C 
ATOM      2  N   UNL     1      19.424 -16.488  36.966  0.00  0.00    +0.000 N 
ATOM      3  C   UNL     1      18.762 -15.575  37.894  0.00  0.00    +0.000 C 
ATOM      4  C   UNL     1      19.211 -14.140  37.651  0.00  0.00    +0.000 C 
ATOM      5  C   UNL     1      20.731 -14.062  37.694  0.00  0.00    +0.000 C 
ATOM      6  O   UNL     1      21.299 -15.026  36.804  0.00  0.00    +0.000 OA
ATOM      7  H   UNL     1      19.156 -17.445  37.196  0.00  0.00    +0.000 HD
ATOM      8  H   UNL     1      19.133 -16.248  36.018  0.00  0.00    +0.000 HD
ENDROOT
BRANCH   5   9
ATOM      9  C   UNL     1      21.316 -12.695  37.321  0.00  0.00    +0.000 C 
ATOM     10  C   UNL     1      22.774 -12.322  37.699  0.00  0.00    +0.000 C 
ATOM     11  C   UNL     1      22.350 -10.828  37.635  0.00  0.00    +0.000 C 
ATOM     12  C   UNL     1      20.877 -11.312  37.958  0.00  0.00    +0.000 C 
ATOM     13  C   UNL     1      19.811 -10.600  37.119  0.00  0.00    +0.000 C 
ATOM     14  C   UNL     1      20.481 -11.300  39.434  0.00  0.00    +0.000 C 
BRANCH  11  15
ATOM     15  C   UNL     1      23.120  -9.905  38.575  0.00  0.00    +0.000 C 
BRANCH  15  16
ATOM     16  C   UNL     1      24.487  -9.546  37.982  0.00  0.00    +0.000 C 
BRANCH  16  17
ATOM     17  C   UNL     1      25.647  -9.924  38.913  0.00  0.00    +0.000 C 
ATOM     18  C   UNL     1      26.783  -8.907  38.821  0.00  0.00    +0.000 C 
BRANCH  17  19
ATOM     19  C   UNL     1      26.180 -11.308  38.621  0.00  0.00    +0.000 C 
ATOM     20  O   UNL     1      26.747 -11.650  37.596  0.00  0.00    +0.000 OA
ATOM     21  O   UNL     1      25.976 -12.191  39.615  0.00  0.00    +0.000 OA
ENDBRANCH  17  19
ENDBRANCH  16  17
ENDBRANCH  15  16
ENDBRANCH  11  15
ENDBRANCH   5   9
BRANCH   1  22
ATOM     22  C   UNL     1      21.529 -16.964  38.317  0.00  0.00    +0.000 C 
BRANCH  22  23
ATOM     23  C   UNL     1      23.001 -17.310  38.167  0.00  0.00    +0.000 C 
ATOM     24  C   UNL     1      23.906 -16.371  38.072  0.00  0.00    +0.000 C 
ATOM     25  C   UNL     1      24.729 -15.500  37.998  0.00  0.00    +0.000 C 
ATOM     26  N   UNL     1      25.527 -14.645  37.932  0.00  0.00    +0.000 NA
ATOM     27  H   UNL     1      26.391 -14.741  38.394  0.00  0.00    +0.000 HD
BRANCH  23  29
ATOM     28  C   UNL     1      22.496 -19.720  37.485  0.00  0.00    +0.000 C 
ATOM     29  C   UNL     1      23.350 -18.776  38.322  0.00  0.00    +0.000 C 
ENDBRANCH  23  29
ENDBRANCH  22  23
ENDBRANCH   1  22
TORSDOF 8
ENDMDL
MODEL 3
REMARK VINA RESULT:    -8.691      1.803      2.245
REMARK INTER + INTRA:         -13.594
REMARK INTER:                 -12.322
REMARK INTRA:                  -1.272
REMARK UNBOUND:                -0.839
REMARK  Name = docking_results/ligand_3d.pdb
REMARK  12 active torsions:
REMARK  status: ('A' for Active; 'I' for Inactive)
REMARK    1  A    between atoms: C_1  and  C_2
REMARK    2  A    between atoms: C_2  and  C_3
REMARK    3  A    between atoms: C_3  and  C_7
REMARK    4  A    between atoms: C_7  and  C_8
REMARK    5  A    between atoms: C_12  and  C_13
REMARK    6  A    between atoms: C_15  and  C_16
REMARK    7  A    between atoms: C_16  and  C_17
REMARK    8  A    between atoms: C_17  and  C_18
REMARK    9  A    between atoms: C_18  and  C_19
REMARK   10  A    between atoms: C_18  and  C_20
REMARK   11  A    between atoms: C_23  and  C_24
REMARK   12  A    between atoms: C_23  and  C_25
REMARK                            x       y       z     vdW  Elec       q    Type
REMARK                         _______ _______ _______ _____ _____    ______ ____
ROOT
ATOM      1  C   UNL     1      20.523 -16.403  37.291  0.00  0.00    +0.000 C 
ATOM      2  N   UNL     1      19.065 -16.467  37.200  0.00  0.00    +0.000 N 
ATOM      3  C   UNL     1      18.429 -15.469  38.056  0.00  0.00    +0.000 C 
ATOM      4  C   UNL     1      18.940 -14.073  37.727  0.00  0.00    +0.000 C 
ATOM      5  C   UNL     1      20.461 -14.053  37.787  0.00  0.00    +0.000 C 
ATOM      6  O   UNL     1      21.000 -15.096  36.971  0.00  0.00    +0.000 OA
ATOM      7  H   UNL     1      18.755 -17.395  37.488  0.00  0.00    +0.000 HD
ATOM      8  H   UNL     1      18.796 -16.278  36.234  0.00  0.00    +0.000 HD
ENDROOT
BRANCH   5   9
ATOM      9  C   UNL     1      21.106 -12.738  37.335  0.00  0.00    +0.000 C 
ATOM     10  C   UNL     1      22.602 -12.443  37.624  0.00  0.00    +0.000 C 
ATOM     11  C   UNL     1      22.266 -10.929  37.526  0.00  0.00    +0.000 C 
ATOM     12  C   UNL     1      20.785 -11.309  37.942  0.00  0.00    +0.000 C 
ATOM     13  C   UNL     1      19.721 -10.562  37.133  0.00  0.00    +0.000 C 
ATOM     14  C   UNL     1      20.470 -11.223  39.435  0.00  0.00    +0.000 C 
BRANCH  11  15
ATOM     15  C   UNL     1      23.139 -10.024  38.391  0.00  0.00    +0.000 C 
BRANCH  15  16
ATOM     16  C   UNL     1      24.532  -9.864  37.773  0.00  0.00    +0.000 C 
BRANCH  16  17
ATOM     17  C   UNL     1      25.654 -10.222  38.758  0.00  0.00    +0.000 C 
ATOM     18  C   UNL     1      26.736  -9.145  38.778  0.00  0.00    +0.000 C 
BRANCH  17  19
ATOM     19  C   UNL     1      26.278 -11.562  38.442  0.00  0.00    +0.000 C 
ATOM     20  O   UNL     1      26.989 -11.808  37.481  0.00  0.00    +0.000 OA
ATOM     21  O   UNL     1      25.984 -12.524  39.336  0.00  0.00    +0.000 OA
ENDBRANCH  17  19
ENDBRANCH  16  17
ENDBRANCH  15  16
ENDBRANCH  11  15
ENDBRANCH   5   9
BRANCH   1  22
ATOM     22  C   UNL     1      21.132 -16.937  38.612  0.00  0.00    +0.000 C 
BRANCH  22  23
ATOM     23  C   UNL     1      22.526 -17.522  38.467  0.00  0.00    +0.000 C 
ATOM     24  C   UNL     1      22.739 -18.577  37.724  0.00  0.00    +0.000 C 
ATOM     25  C   UNL     1      22.924 -19.539  37.029  0.00  0.00    +0.000 C 
ATOM     26  N   UNL     1      23.098 -20.474  36.345  0.00  0.00    +0.000 NA
ATOM     27  H   UNL     1      23.903 -20.528  35.780  0.00  0.00    +0.000 HD
BRANCH  23  29
ATOM     28  C   UNL     1      24.427 -15.861  38.074  0.00  0.00    +0.000 C 
ATOM     29  C   UNL     1      23.647 -16.705  39.075  0.00  0.00    +0.000 C 
ENDBRANCH  23  29
ENDBRANCH  22  23
ENDBRANCH   1  22
TORSDOF 8
ENDMDL
MODEL 4
REMARK VINA RESULT:    -8.634      3.536      8.086
REMARK INTER + INTRA:         -13.511
REMARK INTER:                 -12.519
REMARK INTRA:                  -0.992
REMARK UNBOUND:                -0.839
REMARK  Name = docking_results/ligand_3d.pdb
REMARK  12 active torsions:
REMARK  status: ('A' for Active; 'I' for Inactive)
REMARK    1  A    between atoms: C_1  and  C_2
REMARK    2  A    between atoms: C_2  and  C_3
REMARK    3  A    between atoms: C_3  and  C_7
REMARK    4  A    between atoms: C_7  and  C_8
REMARK    5  A    between atoms: C_12  and  C_13
REMARK    6  A    between atoms: C_15  and  C_16
REMARK    7  A    between atoms: C_16  and  C_17
REMARK    8  A    between atoms: C_17  and  C_18
REMARK    9  A    between atoms: C_18  and  C_19
REMARK   10  A    between atoms: C_18  and  C_20
REMARK   11  A    between atoms: C_23  and  C_24
REMARK   12  A    between atoms: C_23  and  C_25
REMARK                            x       y       z     vdW  Elec       q    Type
REMARK                         _______ _______ _______ _____ _____    ______ ____
ROOT
ATOM      1  C   UNL     1      22.286  -9.063  37.601  0.00  0.00    +0.000 C 
ATOM      2  N   UNL     1      23.304  -8.021  37.738  0.00  0.00    +0.000 N 
ATOM      3  C   UNL     1      24.301  -8.374  38.744  0.00  0.00    +0.000 C 
ATOM      4  C   UNL     1      24.933  -9.723  38.427  0.00  0.00    +0.000 C 
ATOM      5  C   UNL     1      23.845 -10.773  38.248  0.00  0.00    +0.000 C 
ATOM      6  O   UNL     1      22.880 -10.324  37.293  0.00  0.00    +0.000 OA
ATOM      7  H   UNL     1      22.852  -7.149  38.012  0.00  0.00    +0.000 HD
ATOM      8  H   UNL     1      23.778  -7.918  36.840  0.00  0.00    +0.000 HD
ENDROOT
BRANCH   5   9
ATOM      9  C   UNL     1      24.345 -12.145  37.783  0.00  0.00    +0.000 C 
ATOM     10  C   UNL     1      23.537 -13.434  38.092  0.00  0.00    +0.000 C 
ATOM     11  C   UNL     1      24.865 -14.231  37.961  0.00  0.00    +0.000 C 
ATOM     12  C   UNL     1      25.617 -12.895  38.359  0.00  0.00    +0.000 C 
ATOM     13  C   UNL     1      26.871 -12.636  37.519  0.00  0.00    +0.000 C 
ATOM     14  C   UNL     1      25.933 -12.725  39.844  0.00  0.00    +0.000 C 
BRANCH  11  15
ATOM     15  C   UNL     1      24.943 -15.488  38.825  0.00  0.00    +0.000 C 
BRANCH  15  16
ATOM     16  C   UNL     1      24.580 -16.731  38.006  0.00  0.00    +0.000 C 
BRANCH  16  17
ATOM     17  C   UNL     1      23.435 -17.535  38.638  0.00  0.00    +0.000 C 
ATOM     18  C   UNL     1      23.797 -19.014  38.755  0.00  0.00    +0.000 C 
BRANCH  17  19
ATOM     19  C   UNL     1      22.146 -17.388  37.863  0.00  0.00    +0.000 C 
ATOM     20  O   UNL     1      21.543 -16.344  37.673  0.00  0.00    +0.000 OA
ATOM     21  O   UNL     1      21.672 -18.546  37.369  0.00  0.00    +0.000 OA
ENDBRANCH  17  19
ENDBRANCH  16  17
ENDBRANCH  15  16
ENDBRANCH  11  15
ENDBRANCH   5   9
BRANCH   1  22
ATOM     22  C   UNL     1      21.278  -9.165  38.773  0.00  0.00    +0.000 C 
BRANCH  22  23
ATOM     23  C   UNL     1      19.827  -9.295  38.341  0.00  0.00    +0.000 C 
ATOM     24  C   UNL     1      18.943  -9.869  39.116  0.00  0.00    +0.000 C 
ATOM     25  C   UNL     1      18.139 -10.386  39.842  0.00  0.00    +0.000 C 
ATOM     26  N   UNL     1      17.359 -10.887  40.557  0.00  0.00    +0.000 NA
ATOM     27  H   UNL     1      16.450 -10.514  40.634  0.00  0.00    +0.000 HD
BRANCH  23  29
ATOM     28  C   UNL     1      18.209  -7.692  37.184  0.00  0.00    +0.000 C 
ATOM     29  C   UNL     1      19.453  -8.565  37.068  0.00  0.00    +0.000 C 
ENDBRANCH  23  29
ENDBRANCH  22  23
ENDBRANCH   1  22
TORSDOF 8
ENDMDL
MODEL 5
REMARK VINA RESULT:    -8.548      3.846      5.308
REMARK INTER + INTRA:         -13.385
REMARK INTER:                 -12.708
REMARK INTRA:                  -0.676
REMARK UNBOUND:                -0.839
REMARK  Name = docking_results/ligand_3d.pdb
REMARK  12 active torsions:
REMARK  status: ('A' for Active; 'I' for Inactive)
REMARK    1  A    between atoms: C_1  and  C_2
REMARK    2  A    between atoms: C_2  and  C_3
REMARK    3  A    between atoms: C_3  and  C_7
REMARK    4  A    between atoms: C_7  and  C_8
REMARK    5  A    between atoms: C_12  and  C_13
REMARK    6  A    between atoms: C_15  and  C_16
REMARK    7  A    between atoms: C_16  and  C_17
REMARK    8  A    between atoms: C_17  and  C_18
REMARK    9  A    between atoms: C_18  and  C_19
REMARK   10  A    between atoms: C_18  and  C_20
REMARK   11  A    between atoms: C_23  and  C_24
REMARK   12  A    between atoms: C_23  and  C_25
REMARK                            x       y       z     vdW  Elec       q    Type
REMARK                         _______ _______ _______ _____ _____    ______ ____
ROOT
ATOM      1  C   UNL     1      21.520 -15.911  37.179  0.00  0.00    +0.000 C 
ATOM      2  N   UNL     1      20.446 -16.639  36.503  0.00  0.00    +0.000 N 
ATOM      3  C   UNL     1      19.223 -16.651  37.302  0.00  0.00    +0.000 C 
ATOM      4  C   UNL     1      18.792 -15.233  37.652  0.00  0.00    +0.000 C 
ATOM      5  C   UNL     1      19.947 -14.492  38.311  0.00  0.00    +0.000 C 
ATOM      6  O   UNL     1      21.118 -14.579  37.496  0.00  0.00    +0.000 OA
ATOM      7  H   UNL     1      20.746 -17.600  36.343  0.00  0.00    +0.000 HD
ATOM      8  H   UNL     1      20.247 -16.168  35.621  0.00  0.00    +0.000 HD
ENDROOT
BRANCH   5   9
ATOM      9  C   UNL     1      19.687 -13.006  38.582  0.00  0.00    +0.000 C 
ATOM     10  C   UNL     1      18.621 -12.223  37.769  0.00  0.00    +0.000 C 
ATOM     11  C   UNL     1      19.404 -10.922  38.100  0.00  0.00    +0.000 C 
ATOM     12  C   UNL     1      20.695 -11.828  38.251  0.00  0.00    +0.000 C 
ATOM     13  C   UNL     1      21.560 -11.450  39.457  0.00  0.00    +0.000 C 
ATOM     14  C   UNL     1      21.563 -11.963  37.000  0.00  0.00    +0.000 C 
BRANCH  11  15
ATOM     15  C   UNL     1      19.305  -9.830  37.038  0.00  0.00    +0.000 C 
BRANCH  15  16
ATOM     16  C   UNL     1      19.068  -8.463  37.688  0.00  0.00    +0.000 C 
BRANCH  16  17
ATOM     17  C   UNL     1      17.575  -8.133  37.830  0.00  0.00    +0.000 C 
ATOM     18  C   UNL     1      17.346  -6.624  37.890  0.00  0.00    +0.000 C 
BRANCH  17  19
ATOM     19  C   UNL     1      16.963  -8.788  39.046  0.00  0.00    +0.000 C 
ATOM     20  O   UNL     1      17.200  -8.496  40.207  0.00  0.00    +0.000 OA
ATOM     21  O   UNL     1      16.093  -9.772  38.756  0.00  0.00    +0.000 OA
ENDBRANCH  17  19
ENDBRANCH  16  17
ENDBRANCH  15  16
ENDBRANCH  11  15
ENDBRANCH   5   9
BRANCH   1  22
ATOM     22  C   UNL     1      22.150 -16.634  38.396  0.00  0.00    +0.000 C 
BRANCH  22  23
ATOM     23  C   UNL     1      23.657 -16.478  38.505  0.00  0.00    +0.000 C 
ATOM     24  C   UNL     1      24.360 -17.259  39.285  0.00  0.00    +0.000 C 
ATOM     25  C   UNL     1      24.995 -17.990  39.994  0.00  0.00    +0.000 C 
ATOM     26  N   UNL     1      25.609 -18.710  40.685  0.00  0.00    +0.000 NA
ATOM     27  H   UNL     1      26.485 -19.048  40.389  0.00  0.00    +0.000 HD
BRANCH  23  29
ATOM     28  C   UNL     1      24.580 -14.127  38.113  0.00  0.00    +0.000 C 
ATOM     29  C   UNL     1      24.289 -15.506  37.531  0.00  0.00    +0.000 C 
ENDBRANCH  23  29
ENDBRANCH  22  23
ENDBRANCH   1  22
TORSDOF 8
ENDMDL
MODEL 6
REMARK VINA RESULT:    -8.394      3.692      8.184
REMARK INTER + INTRA:         -13.159
REMARK INTER:                 -11.892
REMARK INTRA:                  -1.267
REMARK UNBOUND:                -0.839
REMARK  Name = docking_results/ligand_3d.pdb
REMARK  12 active torsions:
REMARK  status: ('A' for Active; 'I' for Inactive)
REMARK    1  A    between atoms: C_1  and  C_2
REMARK    2  A    between atoms: C_2  and  C_3
REMARK    3  A    between atoms: C_3  and  C_7
REMARK    4  A    between atoms: C_7  and  C_8
REMARK    5  A    between atoms: C_12  and  C_13
REMARK    6  A    between atoms: C_15  and  C_16
REMARK    7  A    between atoms: C_16  and  C_17
REMARK    8  A    between atoms: C_17  and  C_18
REMARK    9  A    between atoms: C_18  and  C_19
REMARK   10  A    between atoms: C_18  and  C_20
REMARK   11  A    between atoms: C_23  and  C_24
REMARK   12  A    between atoms: C_23  and  C_25
REMARK                            x       y       z     vdW  Elec       q    Type
REMARK                         _______ _______ _______ _____ _____    ______ ____
ROOT
ATOM      1  C   UNL     1      22.400  -9.113  37.591  0.00  0.00    +0.000 C 
ATOM      2  N   UNL     1      23.420  -8.066  37.642  0.00  0.00    +0.000 N 
ATOM      3  C   UNL     1      24.479  -8.395  38.592  0.00  0.00    +0.000 C 
ATOM      4  C   UNL     1      25.096  -9.748  38.265  0.00  0.00    +0.000 C 
ATOM      5  C   UNL     1      24.003 -10.805  38.175  0.00  0.00    +0.000 C 
ATOM      6  O   UNL     1      22.979 -10.379  37.272  0.00  0.00    +0.000 OA
ATOM      7  H   UNL     1      22.982  -7.190  37.926  0.00  0.00    +0.000 HD
ATOM      8  H   UNL     1      23.837  -7.980  36.715  0.00  0.00    +0.000 HD
ENDROOT
BRANCH   5   9
ATOM      9  C   UNL     1      24.479 -12.185  37.708  0.00  0.00    +0.000 C 
ATOM     10  C   UNL     1      23.648 -13.460  38.015  0.00  0.00    +0.000 C 
ATOM     11  C   UNL     1      24.962 -14.280  37.884  0.00  0.00    +0.000 C 
ATOM     12  C   UNL     1      25.737 -12.958  38.283  0.00  0.00    +0.000 C 
ATOM     13  C   UNL     1      26.997 -12.720  37.444  0.00  0.00    +0.000 C 
ATOM     14  C   UNL     1      26.056 -12.796  39.769  0.00  0.00    +0.000 C 
BRANCH  11  15
ATOM     15  C   UNL     1      25.017 -15.539  38.746  0.00  0.00    +0.000 C 
BRANCH  15  16
ATOM     16  C   UNL     1      24.626 -16.773  37.926  0.00  0.00    +0.000 C 
BRANCH  16  17
ATOM     17  C   UNL     1      23.408 -17.503  38.511  0.00  0.00    +0.000 C 
ATOM     18  C   UNL     1      23.731 -18.966  38.809  0.00  0.00    +0.000 C 
BRANCH  17  19
ATOM     19  C   UNL     1      22.208 -17.425  37.597  0.00  0.00    +0.000 C 
ATOM     20  O   UNL     1      21.732 -16.401  37.133  0.00  0.00    +0.000 OA
ATOM     21  O   UNL     1      21.663 -18.621  37.309  0.00  0.00    +0.000 OA
ENDBRANCH  17  19
ENDBRANCH  16  17
ENDBRANCH  15  16
ENDBRANCH  11  15
ENDBRANCH   5   9
BRANCH   1  22
ATOM     22  C   UNL     1      21.466  -9.194  38.825  0.00  0.00    +0.000 C 
BRANCH  22  23
ATOM     23  C   UNL     1      20.005  -9.438  38.489  0.00  0.00    +0.000 C 
ATOM     24  C   UNL     1      19.215  -8.447  38.164  0.00  0.00    +0.000 C 
ATOM     25  C   UNL     1      18.503  -7.531  37.856  0.00  0.00    +0.000 C 
ATOM     26  N   UNL     1      17.816  -6.633  37.550  0.00  0.00    +0.000 NA
ATOM     27  H   UNL     1      17.154  -6.743  36.829  0.00  0.00    +0.000 HD
BRANCH  23  29
ATOM     28  C   UNL     1      20.348 -11.836  39.301  0.00  0.00    +0.000 C 
ATOM     29  C   UNL     1      19.590 -10.890  38.377  0.00  0.00    +0.000 C 
ENDBRANCH  23  29
ENDBRANCH  22  23
ENDBRANCH   1  22
TORSDOF 8
ENDMDL
MODEL 7
REMARK VINA RESULT:    -8.369      3.283      8.032
REMARK INTER + INTRA:         -13.122
REMARK INTER:                 -11.812
REMARK INTRA:                  -1.310
REMARK UNBOUND:                -0.839
REMARK  Name = docking_results/ligand_3d.pdb
REMARK  12 active torsions:
REMARK  status: ('A' for Active; 'I' for Inactive)
REMARK    1  A    between atoms: C_1  and  C_2
REMARK    2  A    between atoms: C_2  and  C_3
REMARK    3  A    between atoms: C_3  and  C_7
REMARK    4  A    between atoms: C_7  and  C_8
REMARK    5  A    between atoms: C_12  and  C_13
REMARK    6  A    between atoms: C_15  and  C_16
REMARK    7  A    between atoms: C_16  and  C_17
REMARK    8  A    between atoms: C_17  and  C_18
REMARK    9  A    between atoms: C_18  and  C_19
REMARK   10  A    between atoms: C_18  and  C_20
REMARK   11  A    between atoms: C_23  and  C_24
REMARK   12  A    between atoms: C_23  and  C_25
REMARK                            x       y       z     vdW  Elec       q    Type
REMARK                         _______ _______ _______ _____ _____    ______ ____
ROOT
ATOM      1  C   UNL     1      25.028 -14.195  37.730  0.00  0.00    +0.000 C 
ATOM      2  N   UNL     1      25.521 -15.569  37.821  0.00  0.00    +0.000 N 
ATOM      3  C   UNL     1      24.653 -16.397  38.654  0.00  0.00    +0.000 C 
ATOM      4  C   UNL     1      23.219 -16.360  38.142  0.00  0.00    +0.000 C 
ATOM      5  C   UNL     1      22.754 -14.915  38.018  0.00  0.00    +0.000 C 
ATOM      6  O   UNL     1      23.687 -14.162  37.240  0.00  0.00    +0.000 OA
ATOM      7  H   UNL     1      26.457 -15.559  38.226  0.00  0.00    +0.000 HD
ATOM      8  H   UNL     1      25.536 -15.966  36.881  0.00  0.00    +0.000 HD
ENDROOT
BRANCH   5   9
ATOM      9  C   UNL     1      21.373 -14.737  37.375  0.00  0.00    +0.000 C 
ATOM     10  C   UNL     1      20.542 -13.449  37.617  0.00  0.00    +0.000 C 
ATOM     11  C   UNL     1      19.267 -14.277  37.295  0.00  0.00    +0.000 C 
ATOM     12  C   UNL     1      20.074 -15.558  37.763  0.00  0.00    +0.000 C 
ATOM     13  C   UNL     1      19.862 -16.771  36.853  0.00  0.00    +0.000 C 
ATOM     14  C   UNL     1      19.896 -15.959  39.227  0.00  0.00    +0.000 C 
BRANCH  11  15
ATOM     15  C   UNL     1      18.005 -13.812  38.017  0.00  0.00    +0.000 C 
BRANCH  15  16
ATOM     16  C   UNL     1      16.828 -13.716  37.040  0.00  0.00    +0.000 C 
BRANCH  16  17
ATOM     17  C   UNL     1      15.916 -12.517  37.337  0.00  0.00    +0.000 C 
ATOM     18  C   UNL     1      16.627 -11.487  38.214  0.00  0.00    +0.000 C 
BRANCH  17  19
ATOM     19  C   UNL     1      14.623 -12.937  37.995  0.00  0.00    +0.000 C 
ATOM     20  O   UNL     1      13.885 -12.213  38.643  0.00  0.00    +0.000 OA
ATOM     21  O   UNL     1      14.318 -14.236  37.816  0.00  0.00    +0.000 OA
ENDBRANCH  17  19
ENDBRANCH  16  17
ENDBRANCH  15  16
ENDBRANCH  11  15
ENDBRANCH   5   9
BRANCH   1  22
ATOM     22  C   UNL     1      25.200 -13.340  39.011  0.00  0.00    +0.000 C 
BRANCH  22  23
ATOM     23  C   UNL     1      25.092 -11.843  38.783  0.00  0.00    +0.000 C 
ATOM     24  C   UNL     1      23.970 -11.207  39.004  0.00  0.00    +0.000 C 
ATOM     25  C   UNL     1      22.938 -10.633  39.221  0.00  0.00    +0.000 C 
ATOM     26  N   UNL     1      21.930 -10.080  39.441  0.00  0.00    +0.000 NA
ATOM     27  H   UNL     1      21.938  -9.190  39.863  0.00  0.00    +0.000 HD
BRANCH  23  29
ATOM     28  C   UNL     1      26.390  -9.642  38.803  0.00  0.00    +0.000 C 
ATOM     29  C   UNL     1      26.392 -11.130  38.474  0.00  0.00    +0.000 C 
ENDBRANCH  23  29
ENDBRANCH  22  23
ENDBRANCH   1  22
TORSDOF 8
ENDMDL
MODEL 8
REMARK VINA RESULT:    -8.334      3.354      6.295
REMARK INTER + INTRA:         -13.071
REMARK INTER:                 -11.629
REMARK INTRA:                  -1.442
REMARK UNBOUND:                -0.839
REMARK  Name = docking_results/ligand_3d.pdb
REMARK  12 active torsions:
REMARK  status: ('A' for Active; 'I' for Inactive)
REMARK    1  A    between atoms: C_1  and  C_2
REMARK    2  A    between atoms: C_2  and  C_3
REMARK    3  A    between atoms: C_3  and  C_7
REMARK    4  A    between atoms: C_7  and  C_8
REMARK    5  A    between atoms: C_12  and  C_13
REMARK    6  A    between atoms: C_15  and  C_16
REMARK    7  A    between atoms: C_16  and  C_17
REMARK    8  A    between atoms: C_17  and  C_18
REMARK    9  A    between atoms: C_18  and  C_19
REMARK   10  A    between atoms: C_18  and  C_20
REMARK   11  A    between atoms: C_23  and  C_24
REMARK   12  A    between atoms: C_23  and  C_25
REMARK                            x       y       z     vdW  Elec       q    Type
REMARK                         _______ _______ _______ _____ _____    ______ ____
ROOT
ATOM      1  C   UNL     1      18.128 -11.283  38.504  0.00  0.00    +0.000 C 
ATOM      2  N   UNL     1      16.900 -12.059  38.335  0.00  0.00    +0.000 N 
ATOM      3  C   UNL     1      17.045 -13.071  37.292  0.00  0.00    +0.000 C 
ATOM      4  C   UNL     1      18.234 -13.978  37.582  0.00  0.00    +0.000 C 
ATOM      5  C   UNL     1      19.484 -13.135  37.796  0.00  0.00    +0.000 C 
ATOM      6  O   UNL     1      19.239 -12.134  38.787  0.00  0.00    +0.000 OA
ATOM      7  H   UNL     1      16.141 -11.428  38.080  0.00  0.00    +0.000 HD
ATOM      8  H   UNL     1      16.698 -12.533  39.215  0.00  0.00    +0.000 HD
ENDROOT
BRANCH   5   9
ATOM      9  C   UNL     1      20.722 -13.923  38.239  0.00  0.00    +0.000 C 
ATOM     10  C   UNL     1      22.131 -13.271  38.218  0.00  0.00    +0.000 C 
ATOM     11  C   UNL     1      22.730 -14.701  38.105  0.00  0.00    +0.000 C 
ATOM     12  C   UNL     1      21.358 -15.142  37.449  0.00  0.00    +0.000 C 
ATOM     13  C   UNL     1      20.850 -16.493  37.963  0.00  0.00    +0.000 C 
ATOM     14  C   UNL     1      21.308 -15.106  35.922  0.00  0.00    +0.000 C 
BRANCH  11  15
ATOM     15  C   UNL     1      24.051 -14.781  37.343  0.00  0.00    +0.000 C 
BRANCH  15  16
ATOM     16  C   UNL     1      25.226 -14.423  38.258  0.00  0.00    +0.000 C 
BRANCH  16  17
ATOM     17  C   UNL     1      26.042 -13.235  37.727  0.00  0.00    +0.000 C 
ATOM     18  C   UNL     1      27.539 -13.536  37.757  0.00  0.00    +0.000 C 
BRANCH  17  19
ATOM     19  C   UNL     1      25.764 -11.967  38.499  0.00  0.00    +0.000 C 
ATOM     20  O   UNL     1      24.854 -11.803  39.296  0.00  0.00    +0.000 OA
ATOM     21  O   UNL     1      26.629 -10.970  38.239  0.00  0.00    +0.000 OA
ENDBRANCH  17  19
ENDBRANCH  16  17
ENDBRANCH  15  16
ENDBRANCH  11  15
ENDBRANCH   5   9
BRANCH   1  22
ATOM     22  C   UNL     1      18.441 -10.276  37.369  0.00  0.00    +0.000 C 
BRANCH  22  23
ATOM     23  C   UNL     1      19.447  -9.202  37.744  0.00  0.00    +0.000 C 
ATOM     24  C   UNL     1      20.733  -9.423  37.651  0.00  0.00    +0.000 C 
ATOM     25  C   UNL     1      21.910  -9.634  37.549  0.00  0.00    +0.000 C 
ATOM     26  N   UNL     1      23.058  -9.845  37.442  0.00  0.00    +0.000 NA
ATOM     27  H   UNL     1      23.659  -9.140  37.107  0.00  0.00    +0.000 HD
BRANCH  23  29
ATOM     28  C   UNL     1      17.353  -7.746  37.902  0.00  0.00    +0.000 C 
ATOM     29  C   UNL     1      18.868  -7.835  38.043  0.00  0.00    +0.000 C 
ENDBRANCH  23  29
ENDBRANCH  22  23
ENDBRANCH   1  22
TORSDOF 8
ENDMDL
MODEL 9
REMARK VINA RESULT:    -8.314      3.615      8.283
REMARK INTER + INTRA:         -13.042
REMARK INTER:                 -12.202
REMARK INTRA:                  -0.839
REMARK UNBOUND:                -0.839
REMARK  Name = docking_results/ligand_3d.pdb
REMARK  12 active torsions:
REMARK  status: ('A' for Active; 'I' for Inactive)
REMARK    1  A    between atoms: C_1  and  C_2
REMARK    2  A    between atoms: C_2  and  C_3
REMARK    3  A    between atoms: C_3  and  C_7
REMARK    4  A    between atoms: C_7  and  C_8
REMARK    5  A    between atoms: C_12  and  C_13
REMARK    6  A    between atoms: C_15  and  C_16
REMARK    7  A    between atoms: C_16  and  C_17
REMARK    8  A    between atoms: C_17  and  C_18
REMARK    9  A    between atoms: C_18  and  C_19
REMARK   10  A    between atoms: C_18  and  C_20
REMARK   11  A    between atoms: C_23  and  C_24
REMARK   12  A    between atoms: C_23  and  C_25
REMARK                            x       y       z     vdW  Elec       q    Type
REMARK                         _______ _______ _______ _____ _____    ______ ____
ROOT
ATOM      1  C   UNL     1      21.496  -9.154  37.549  0.00  0.00    +0.000 C 
ATOM      2  N   UNL     1      22.751  -8.426  37.367  0.00  0.00    +0.000 N 
ATOM      3  C   UNL     1      23.670  -8.654  38.478  0.00  0.00    +0.000 C 
ATOM      4  C   UNL     1      23.921 -10.144  38.673  0.00  0.00    +0.000 C 
ATOM      5  C   UNL     1      22.594 -10.876  38.814  0.00  0.00    +0.000 C 
ATOM      6  O   UNL     1      21.733 -10.551  37.719  0.00  0.00    +0.000 OA
ATOM      7  H   UNL     1      22.550  -7.428  37.304  0.00  0.00    +0.000 HD
ATOM      8  H   UNL     1      23.194  -8.761  36.511  0.00  0.00    +0.000 HD
ENDROOT
BRANCH   5   9
ATOM      9  C   UNL     1      22.705 -12.404  38.871  0.00  0.00    +0.000 C 
ATOM     10  C   UNL     1      24.079 -13.109  38.715  0.00  0.00    +0.000 C 
ATOM     11  C   UNL     1      23.313 -14.373  38.234  0.00  0.00    +0.000 C 
ATOM     12  C   UNL     1      22.153 -13.400  37.768  0.00  0.00    +0.000 C 
ATOM     13  C   UNL     1      20.755 -13.924  38.108  0.00  0.00    +0.000 C 
ATOM     14  C   UNL     1      22.208 -12.950  36.309  0.00  0.00    +0.000 C 
BRANCH  11  15
ATOM     15  C   UNL     1      24.080 -15.246  37.243  0.00  0.00    +0.000 C 
BRANCH  15  16
ATOM     16  C   UNL     1      23.217 -16.423  36.777  0.00  0.00    +0.000 C 
BRANCH  16  17
ATOM     17  C   UNL     1      22.555 -17.164  37.948  0.00  0.00    +0.000 C 
ATOM     18  C   UNL     1      23.568 -18.027  38.698  0.00  0.00    +0.000 C 
BRANCH  17  19
ATOM     19  C   UNL     1      21.396 -18.020  37.494  0.00  0.00    +0.000 C 
ATOM     20  O   UNL     1      21.386 -19.239  37.450  0.00  0.00    +0.000 OA
ATOM     21  O   UNL     1      20.314 -17.316  37.117  0.00  0.00    +0.000 OA
ENDBRANCH  17  19
ENDBRANCH  16  17
ENDBRANCH  15  16
ENDBRANCH  11  15
ENDBRANCH   5   9
BRANCH   1  22
ATOM     22  C   UNL     1      20.550  -8.587  38.637  0.00  0.00    +0.000 C 
BRANCH  22  23
ATOM     23  C   UNL     1      19.072  -8.789  38.348  0.00  0.00    +0.000 C 
ATOM     24  C   UNL     1      18.339  -9.566  39.104  0.00  0.00    +0.000 C 
ATOM     25  C   UNL     1      17.674 -10.272  39.812  0.00  0.00    +0.000 C 
ATOM     26  N   UNL     1      17.031 -10.957  40.510  0.00  0.00    +0.000 NA
ATOM     27  H   UNL     1      16.112 -10.694  40.748  0.00  0.00    +0.000 HD
BRANCH  23  29
ATOM     28  C   UNL     1      17.416  -6.935  37.759  0.00  0.00    +0.000 C 
ATOM     29  C   UNL     1      18.486  -7.903  37.269  0.00  0.00    +0.000 C 
ENDBRANCH  23  29
ENDBRANCH  22  23
ENDBRANCH   1  22
TORSDOF 8
ENDMDL
