REMARK  Name = docking_results/ligand_3d.pdb
REMARK  12 active torsions:
REMARK  status: ('A' for Active; 'I' for Inactive)
REMARK    1  A    between atoms: C_1  and  C_2
REMARK    2  A    between atoms: C_2  and  C_3
REMARK    3  A    between atoms: C_3  and  C_7
REMARK    4  A    between atoms: C_7  and  C_8
REMARK    5  A    between atoms: C_12  and  C_13
REMARK    6  A    between atoms: C_15  and  C_16
REMARK    7  A    between atoms: C_16  and  C_17
REMARK    8  A    between atoms: C_17  and  C_18
REMARK    9  A    between atoms: C_18  and  C_19
REMARK   10  A    between atoms: C_18  and  C_20
REMARK   11  A    between atoms: C_23  and  C_24
REMARK   12  A    between atoms: C_23  and  C_25
REMARK                            x       y       z     vdW  Elec       q    Type
REMARK                         _______ _______ _______ _____ _____    ______ ____
ROOT
ATOM      1  C   UNL     1      -2.902  -0.758  -0.422  0.00  0.00    +0.000 C 
ATOM      2  N   UNL     1      -2.935  -0.131  -1.743  0.00  0.00    +0.000 N 
ATOM      3  C   UNL     1      -2.504   1.263  -1.686  0.00  0.00    +0.000 C 
ATOM      4  C   UNL     1      -1.121   1.375  -1.058  0.00  0.00    +0.000 C 
ATOM      5  C   UNL     1      -1.111   0.674   0.294  0.00  0.00    +0.000 C 
ATOM      6  O   UNL     1      -1.602  -0.662   0.160  0.00  0.00    +0.000 OA
ATOM      7  H   UNL     1      -3.888  -0.168  -2.104  0.00  0.00    +0.000 HD
ATOM      8  H   UNL     1      -2.295  -0.639  -2.354  0.00  0.00    +0.000 HD
ENDROOT
BRANCH   5   9
ATOM      9  C   UNL     1       0.265   0.591   0.965  0.00  0.00    +0.000 C 
ATOM     10  C   UNL     1       1.273   1.767   0.863  0.00  0.00    +0.000 C 
ATOM     11  C   UNL     1       2.412   0.739   1.111  0.00  0.00    +0.000 C 
ATOM     12  C   UNL     1       1.446  -0.362   0.508  0.00  0.00    +0.000 C 
ATOM     13  C   UNL     1       1.466  -1.677   1.293  0.00  0.00    +0.000 C 
ATOM     14  C   UNL     1       1.602  -0.638  -0.987  0.00  0.00    +0.000 C 
BRANCH  11  15
ATOM     15  C   UNL     1       3.744   1.091   0.453  0.00  0.00    +0.000 C 
BRANCH  15  16
ATOM     16  C   UNL     1       4.777  -0.014   0.697  0.00  0.00    +0.000 C 
BRANCH  16  17
ATOM     17  C   UNL     1       6.103   0.253  -0.030  0.00  0.00    +0.000 C 
ATOM     18  C   UNL     1       7.044  -0.945   0.080  0.00  0.00    +0.000 C 
BRANCH  17  19
ATOM     19  C   UNL     1       6.795   1.491   0.491  0.00  0.00    +0.000 C 
ATOM     20  O   UNL     1       7.078   2.479  -0.167  0.00  0.00    +0.000 OA
ATOM     21  O   UNL     1       7.101   1.434   1.800  0.00  0.00    +0.000 OA
ENDBRANCH  17  19
ENDBRANCH  16  17
ENDBRANCH  15  16
ENDBRANCH  11  15
ENDBRANCH   5   9
BRANCH   1  22
ATOM     22  C   UNL     1      -4.013  -0.304   0.558  0.00  0.00    +0.000 C 
BRANCH  22  23
ATOM     23  C   UNL     1      -5.423  -0.642   0.106  0.00  0.00    +0.000 C 
ATOM     24  C   UNL     1      -6.172   0.252  -0.487  0.00  0.00    +0.000 C 
ATOM     25  C   UNL     1      -6.845   1.077  -1.041  0.00  0.00    +0.000 C 
ATOM     26  N   UNL     1      -7.494   1.886  -1.586  0.00  0.00    +0.000 NA
ATOM     27  H   UNL     1      -8.065   1.629  -2.346  0.00  0.00    +0.000 HD
BRANCH  23  29
ATOM     28  C   UNL     1      -7.296  -2.334   0.503  0.00  0.00    +0.000 C 
ATOM     29  C   UNL     1      -5.817  -2.100   0.218  0.00  0.00    +0.000 C 
ENDBRANCH  23  29
ENDBRANCH  22  23
ENDBRANCH   1  22
TORSDOF 8
